
*** ChampSim Multicore Out-of-Order Simulator ***

Warmup Instructions: 200000000
Simulation Instructions: 1000000000
Number of CPUs: 1
Off-chip DRAM Size: 4 GiB Channels: 1 Width: 64-bit Data Rate: 3200 MT/s

VirtualMemory physical capacity: 8588881920 num_ppages: 2096895
VirtualMemory page size: 4096 log2_page_size: 12

CPU 0 runs ./Traces/Traces/libquantum_964B.trace.xz
CPU 0 Bimodal branch predictor
Basic BTB sets: 1024 ways: 8 indirect buffer size: 4096 RAS size: 64
Initialize Hawkeye replacement policy state
Finished initializing Hawkeye replacement policy state
Heartbeat CPU 0 instructions: 10000001 cycles: 2500058 heartbeat IPC: 3.99991 cumulative IPC: 3.99991 (Simulation time: 0 hr 0 min 15 sec) 
Heartbeat CPU 0 instructions: 20000001 cycles: 5000058 heartbeat IPC: 4 cumulative IPC: 3.99995 (Simulation time: 0 hr 0 min 31 sec) 
Heartbeat CPU 0 instructions: 30000001 cycles: 7500058 heartbeat IPC: 4 cumulative IPC: 3.99997 (Simulation time: 0 hr 0 min 48 sec) 
Heartbeat CPU 0 instructions: 40000001 cycles: 10000058 heartbeat IPC: 4 cumulative IPC: 3.99998 (Simulation time: 0 hr 1 min 7 sec) 
Heartbeat CPU 0 instructions: 50000001 cycles: 12500058 heartbeat IPC: 4 cumulative IPC: 3.99998 (Simulation time: 0 hr 1 min 26 sec) 
Heartbeat CPU 0 instructions: 60000001 cycles: 15000058 heartbeat IPC: 4 cumulative IPC: 3.99998 (Simulation time: 0 hr 1 min 44 sec) 
Heartbeat CPU 0 instructions: 70000001 cycles: 17500058 heartbeat IPC: 4 cumulative IPC: 3.99999 (Simulation time: 0 hr 2 min 3 sec) 
Heartbeat CPU 0 instructions: 80000001 cycles: 20000058 heartbeat IPC: 4 cumulative IPC: 3.99999 (Simulation time: 0 hr 2 min 24 sec) 
Heartbeat CPU 0 instructions: 90000001 cycles: 22500058 heartbeat IPC: 4 cumulative IPC: 3.99999 (Simulation time: 0 hr 2 min 45 sec) 
Heartbeat CPU 0 instructions: 100000001 cycles: 25000058 heartbeat IPC: 4 cumulative IPC: 3.99999 (Simulation time: 0 hr 3 min 4 sec) 
Heartbeat CPU 0 instructions: 110000001 cycles: 27500058 heartbeat IPC: 4 cumulative IPC: 3.99999 (Simulation time: 0 hr 3 min 26 sec) 
Heartbeat CPU 0 instructions: 120000001 cycles: 30000058 heartbeat IPC: 4 cumulative IPC: 3.99999 (Simulation time: 0 hr 3 min 47 sec) 
Heartbeat CPU 0 instructions: 130000001 cycles: 32500058 heartbeat IPC: 4 cumulative IPC: 3.99999 (Simulation time: 0 hr 4 min 7 sec) 
Heartbeat CPU 0 instructions: 140000001 cycles: 35000058 heartbeat IPC: 4 cumulative IPC: 3.99999 (Simulation time: 0 hr 4 min 29 sec) 
Heartbeat CPU 0 instructions: 150000001 cycles: 37500058 heartbeat IPC: 4 cumulative IPC: 3.99999 (Simulation time: 0 hr 4 min 50 sec) 
Heartbeat CPU 0 instructions: 160000001 cycles: 40000058 heartbeat IPC: 4 cumulative IPC: 3.99999 (Simulation time: 0 hr 5 min 10 sec) 
Heartbeat CPU 0 instructions: 170000001 cycles: 42500058 heartbeat IPC: 4 cumulative IPC: 3.99999 (Simulation time: 0 hr 5 min 30 sec) 
Heartbeat CPU 0 instructions: 180000001 cycles: 45000058 heartbeat IPC: 4 cumulative IPC: 3.99999 (Simulation time: 0 hr 5 min 50 sec) 
Heartbeat CPU 0 instructions: 190000001 cycles: 47500058 heartbeat IPC: 4 cumulative IPC: 4 (Simulation time: 0 hr 6 min 10 sec) 
Heartbeat CPU 0 instructions: 200000001 cycles: 50000058 heartbeat IPC: 4 cumulative IPC: 4 (Simulation time: 0 hr 6 min 30 sec) 

Warmup complete CPU 0 instructions: 200000001 cycles: 50000058 (Simulation time: 0 hr 6 min 30 sec) 

Heartbeat CPU 0 instructions: 210000004 cycles: 80479175 heartbeat IPC: 0.328094 cumulative IPC: 0.328094 (Simulation time: 0 hr 9 min 11 sec) 
Heartbeat CPU 0 instructions: 220000003 cycles: 100430131 heartbeat IPC: 0.501229 cumulative IPC: 0.396589 (Simulation time: 0 hr 10 min 22 sec) 
Heartbeat CPU 0 instructions: 230000004 cycles: 115580943 heartbeat IPC: 0.660031 cumulative IPC: 0.45745 (Simulation time: 0 hr 11 min 5 sec) 
Heartbeat CPU 0 instructions: 240000002 cycles: 147001694 heartbeat IPC: 0.318261 cumulative IPC: 0.412364 (Simulation time: 0 hr 13 min 52 sec) 
Heartbeat CPU 0 instructions: 250000001 cycles: 156043600 heartbeat IPC: 1.10596 cumulative IPC: 0.471504 (Simulation time: 0 hr 14 min 49 sec) 
Heartbeat CPU 0 instructions: 260000000 cycles: 160874630 heartbeat IPC: 2.06995 cumulative IPC: 0.541152 (Simulation time: 0 hr 15 min 24 sec) 
Heartbeat CPU 0 instructions: 270000000 cycles: 193323019 heartbeat IPC: 0.308182 cumulative IPC: 0.488407 (Simulation time: 0 hr 18 min 20 sec) 
Heartbeat CPU 0 instructions: 280000003 cycles: 211046757 heartbeat IPC: 0.564215 cumulative IPC: 0.49675 (Simulation time: 0 hr 19 min 15 sec) 
Heartbeat CPU 0 instructions: 290000000 cycles: 225813299 heartbeat IPC: 0.677206 cumulative IPC: 0.511907 (Simulation time: 0 hr 19 min 58 sec) 
Heartbeat CPU 0 instructions: 300000004 cycles: 230802466 heartbeat IPC: 2.00434 cumulative IPC: 0.55309 (Simulation time: 0 hr 20 min 35 sec) 
Heartbeat CPU 0 instructions: 310000003 cycles: 239819274 heartbeat IPC: 1.10904 cumulative IPC: 0.579499 (Simulation time: 0 hr 21 min 31 sec) 
Heartbeat CPU 0 instructions: 320000001 cycles: 271262927 heartbeat IPC: 0.318029 cumulative IPC: 0.542341 (Simulation time: 0 hr 24 min 17 sec) 
Heartbeat CPU 0 instructions: 330000002 cycles: 287448149 heartbeat IPC: 0.617848 cumulative IPC: 0.547488 (Simulation time: 0 hr 25 min 3 sec) 
Heartbeat CPU 0 instructions: 340000003 cycles: 300589997 heartbeat IPC: 0.760928 cumulative IPC: 0.558682 (Simulation time: 0 hr 25 min 46 sec) 
Heartbeat CPU 0 instructions: 350000002 cycles: 305492163 heartbeat IPC: 2.03991 cumulative IPC: 0.587102 (Simulation time: 0 hr 26 min 22 sec) 
Heartbeat CPU 0 instructions: 360000001 cycles: 319487583 heartbeat IPC: 0.714519 cumulative IPC: 0.593719 (Simulation time: 0 hr 27 min 45 sec) 
Heartbeat CPU 0 instructions: 370000000 cycles: 347825461 heartbeat IPC: 0.352885 cumulative IPC: 0.570804 (Simulation time: 0 hr 30 min 8 sec) 
Heartbeat CPU 0 instructions: 380000001 cycles: 363101019 heartbeat IPC: 0.654641 cumulative IPC: 0.574894 (Simulation time: 0 hr 30 min 52 sec) 
Heartbeat CPU 0 instructions: 390000002 cycles: 375370876 heartbeat IPC: 0.815005 cumulative IPC: 0.583949 (Simulation time: 0 hr 31 min 34 sec) 
Heartbeat CPU 0 instructions: 400000001 cycles: 380201964 heartbeat IPC: 2.06993 cumulative IPC: 0.60569 (Simulation time: 0 hr 32 min 10 sec) 
Heartbeat CPU 0 instructions: 410000004 cycles: 399252289 heartbeat IPC: 0.524926 cumulative IPC: 0.601285 (Simulation time: 0 hr 33 min 58 sec) 
Heartbeat CPU 0 instructions: 420000002 cycles: 424432345 heartbeat IPC: 0.39714 cumulative IPC: 0.587556 (Simulation time: 0 hr 35 min 56 sec) 
Heartbeat CPU 0 instructions: 430000000 cycles: 439649873 heartbeat IPC: 0.657137 cumulative IPC: 0.590274 (Simulation time: 0 hr 36 min 40 sec) 
Heartbeat CPU 0 instructions: 440000000 cycles: 454696113 heartbeat IPC: 0.664618 cumulative IPC: 0.593038 (Simulation time: 0 hr 37 min 25 sec) 
Heartbeat CPU 0 instructions: 450000000 cycles: 467498220 heartbeat IPC: 0.781121 cumulative IPC: 0.598805 (Simulation time: 0 hr 38 min 8 sec) 
Heartbeat CPU 0 instructions: 460000002 cycles: 494025990 heartbeat IPC: 0.376964 cumulative IPC: 0.585551 (Simulation time: 0 hr 40 min 21 sec) 
Heartbeat CPU 0 instructions: 470000000 cycles: 516857507 heartbeat IPC: 0.437991 cumulative IPC: 0.578335 (Simulation time: 0 hr 42 min 1 sec) 
Heartbeat CPU 0 instructions: 480000000 cycles: 532046656 heartbeat IPC: 0.658365 cumulative IPC: 0.580857 (Simulation time: 0 hr 42 min 45 sec) 
Heartbeat CPU 0 instructions: 490000003 cycles: 551946193 heartbeat IPC: 0.502524 cumulative IPC: 0.577751 (Simulation time: 0 hr 43 min 36 sec) 
Heartbeat CPU 0 instructions: 500000002 cycles: 571792032 heartbeat IPC: 0.503884 cumulative IPC: 0.574942 (Simulation time: 0 hr 44 min 24 sec) 
Heartbeat CPU 0 instructions: 510000000 cycles: 601300625 heartbeat IPC: 0.338884 cumulative IPC: 0.562307 (Simulation time: 0 hr 46 min 50 sec) 
Heartbeat CPU 0 instructions: 520000002 cycles: 627164271 heartbeat IPC: 0.386643 cumulative IPC: 0.554435 (Simulation time: 0 hr 48 min 24 sec) 
Heartbeat CPU 0 instructions: 530000001 cycles: 647014673 heartbeat IPC: 0.503768 cumulative IPC: 0.55275 (Simulation time: 0 hr 49 min 13 sec) 
Heartbeat CPU 0 instructions: 540000003 cycles: 676953455 heartbeat IPC: 0.334015 cumulative IPC: 0.542305 (Simulation time: 0 hr 51 min 45 sec) 
Heartbeat CPU 0 instructions: 550000002 cycles: 708686986 heartbeat IPC: 0.315124 cumulative IPC: 0.53136 (Simulation time: 0 hr 53 min 34 sec) 
Heartbeat CPU 0 instructions: 560000002 cycles: 738282288 heartbeat IPC: 0.337891 cumulative IPC: 0.523041 (Simulation time: 0 hr 54 min 53 sec) 
Heartbeat CPU 0 instructions: 570000001 cycles: 770859749 heartbeat IPC: 0.306961 cumulative IPC: 0.513276 (Simulation time: 0 hr 57 min 43 sec) 
Heartbeat CPU 0 instructions: 580000001 cycles: 797508324 heartbeat IPC: 0.375255 cumulative IPC: 0.508356 (Simulation time: 0 hr 59 min 2 sec) 
Heartbeat CPU 0 instructions: 590000001 cycles: 823656812 heartbeat IPC: 0.382431 cumulative IPC: 0.5041 (Simulation time: 0 hr 59 min 59 sec) 
Heartbeat CPU 0 instructions: 600000002 cycles: 855991603 heartbeat IPC: 0.309264 cumulative IPC: 0.496283 (Simulation time: 1 hr 1 min 1 sec) 
Heartbeat CPU 0 instructions: 610000002 cycles: 887391096 heartbeat IPC: 0.318476 cumulative IPC: 0.489616 (Simulation time: 1 hr 2 min 0 sec) 
Heartbeat CPU 0 instructions: 620000003 cycles: 921599816 heartbeat IPC: 0.292323 cumulative IPC: 0.481873 (Simulation time: 1 hr 3 min 3 sec) 
Heartbeat CPU 0 instructions: 630000004 cycles: 954612986 heartbeat IPC: 0.302909 cumulative IPC: 0.475341 (Simulation time: 1 hr 4 min 38 sec) 
Heartbeat CPU 0 instructions: 640000000 cycles: 986081617 heartbeat IPC: 0.317777 cumulative IPC: 0.470045 (Simulation time: 1 hr 7 min 15 sec) 
Heartbeat CPU 0 instructions: 650000000 cycles: 1015728608 heartbeat IPC: 0.337302 cumulative IPC: 0.465969 (Simulation time: 1 hr 8 min 32 sec) 
Heartbeat CPU 0 instructions: 660000004 cycles: 1046332589 heartbeat IPC: 0.326755 cumulative IPC: 0.461693 (Simulation time: 1 hr 10 min 30 sec) 
Heartbeat CPU 0 instructions: 670000003 cycles: 1079024124 heartbeat IPC: 0.30589 cumulative IPC: 0.456743 (Simulation time: 1 hr 12 min 54 sec) 
Heartbeat CPU 0 instructions: 680000001 cycles: 1116228625 heartbeat IPC: 0.268785 cumulative IPC: 0.450185 (Simulation time: 1 hr 14 min 8 sec) 
Heartbeat CPU 0 instructions: 690000004 cycles: 1150675880 heartbeat IPC: 0.290299 cumulative IPC: 0.445181 (Simulation time: 1 hr 15 min 31 sec) 
Heartbeat CPU 0 instructions: 700000001 cycles: 1183439338 heartbeat IPC: 0.305218 cumulative IPC: 0.441135 (Simulation time: 1 hr 18 min 25 sec) 
Heartbeat CPU 0 instructions: 710000000 cycles: 1219505017 heartbeat IPC: 0.277272 cumulative IPC: 0.436082 (Simulation time: 1 hr 19 min 38 sec) 
Heartbeat CPU 0 instructions: 720000000 cycles: 1255180982 heartbeat IPC: 0.280301 cumulative IPC: 0.43147 (Simulation time: 1 hr 20 min 50 sec) 
Heartbeat CPU 0 instructions: 730000001 cycles: 1276313782 heartbeat IPC: 0.473198 cumulative IPC: 0.43219 (Simulation time: 1 hr 21 min 40 sec) 
Heartbeat CPU 0 instructions: 740000003 cycles: 1296612153 heartbeat IPC: 0.49265 cumulative IPC: 0.433174 (Simulation time: 1 hr 22 min 30 sec) 
Heartbeat CPU 0 instructions: 750000003 cycles: 1330668016 heartbeat IPC: 0.293635 cumulative IPC: 0.429463 (Simulation time: 1 hr 25 min 37 sec) 
Heartbeat CPU 0 instructions: 760000000 cycles: 1356464571 heartbeat IPC: 0.387649 cumulative IPC: 0.428638 (Simulation time: 1 hr 26 min 42 sec) 
Heartbeat CPU 0 instructions: 770000003 cycles: 1383281449 heartbeat IPC: 0.3729 cumulative IPC: 0.427517 (Simulation time: 1 hr 27 min 47 sec) 
Heartbeat CPU 0 instructions: 780000003 cycles: 1400817718 heartbeat IPC: 0.570247 cumulative IPC: 0.42937 (Simulation time: 1 hr 28 min 36 sec) 
Heartbeat CPU 0 instructions: 790000002 cycles: 1417145389 heartbeat IPC: 0.612457 cumulative IPC: 0.431556 (Simulation time: 1 hr 29 min 23 sec) 
Heartbeat CPU 0 instructions: 800000002 cycles: 1449065323 heartbeat IPC: 0.313284 cumulative IPC: 0.428858 (Simulation time: 1 hr 32 min 17 sec) 
Heartbeat CPU 0 instructions: 810000001 cycles: 1462977020 heartbeat IPC: 0.718819 cumulative IPC: 0.431713 (Simulation time: 1 hr 33 min 15 sec) 
Heartbeat CPU 0 instructions: 820000000 cycles: 1474575223 heartbeat IPC: 0.862202 cumulative IPC: 0.435217 (Simulation time: 1 hr 33 min 58 sec) 
Heartbeat CPU 0 instructions: 830000001 cycles: 1479491374 heartbeat IPC: 2.03411 cumulative IPC: 0.440716 (Simulation time: 1 hr 34 min 35 sec) 
Heartbeat CPU 0 instructions: 840000003 cycles: 1485931622 heartbeat IPC: 1.55274 cumulative IPC: 0.445704 (Simulation time: 1 hr 35 min 20 sec) 
Heartbeat CPU 0 instructions: 850000001 cycles: 1519113396 heartbeat IPC: 0.30137 cumulative IPC: 0.442444 (Simulation time: 1 hr 38 min 21 sec) 
Heartbeat CPU 0 instructions: 860000004 cycles: 1535580020 heartbeat IPC: 0.607289 cumulative IPC: 0.444271 (Simulation time: 1 hr 39 min 8 sec) 
Heartbeat CPU 0 instructions: 870000003 cycles: 1550020804 heartbeat IPC: 0.692483 cumulative IPC: 0.44666 (Simulation time: 1 hr 39 min 53 sec) 
Heartbeat CPU 0 instructions: 880000002 cycles: 1555017416 heartbeat IPC: 2.00136 cumulative IPC: 0.451822 (Simulation time: 1 hr 40 min 30 sec) 
Heartbeat CPU 0 instructions: 890000003 cycles: 1566277824 heartbeat IPC: 0.888067 cumulative IPC: 0.455062 (Simulation time: 1 hr 41 min 39 sec) 
Heartbeat CPU 0 instructions: 900000001 cycles: 1594503088 heartbeat IPC: 0.354292 cumulative IPC: 0.45322 (Simulation time: 1 hr 44 min 16 sec) 
Heartbeat CPU 0 instructions: 910000000 cycles: 1599494284 heartbeat IPC: 2.00353 cumulative IPC: 0.458214 (Simulation time: 1 hr 44 min 49 sec) 
Heartbeat CPU 0 instructions: 920000000 cycles: 1604345641 heartbeat IPC: 2.06128 cumulative IPC: 0.463217 (Simulation time: 1 hr 45 min 22 sec) 
Heartbeat CPU 0 instructions: 930000004 cycles: 1609316336 heartbeat IPC: 2.01179 cumulative IPC: 0.468154 (Simulation time: 1 hr 45 min 55 sec) 
Heartbeat CPU 0 instructions: 940000002 cycles: 1626063134 heartbeat IPC: 0.597129 cumulative IPC: 0.469524 (Simulation time: 1 hr 47 min 24 sec) 
Heartbeat CPU 0 instructions: 950000003 cycles: 1648828535 heartbeat IPC: 0.439263 cumulative IPC: 0.469093 (Simulation time: 1 hr 49 min 20 sec) 
Heartbeat CPU 0 instructions: 960000000 cycles: 1653799545 heartbeat IPC: 2.01166 cumulative IPC: 0.473875 (Simulation time: 1 hr 49 min 53 sec) 
Heartbeat CPU 0 instructions: 970000003 cycles: 1672529124 heartbeat IPC: 0.533915 cumulative IPC: 0.474568 (Simulation time: 1 hr 51 min 30 sec) 
Heartbeat CPU 0 instructions: 980000000 cycles: 1693314081 heartbeat IPC: 0.481117 cumulative IPC: 0.474651 (Simulation time: 1 hr 53 min 15 sec) 
Heartbeat CPU 0 instructions: 990000004 cycles: 1698285218 heartbeat IPC: 2.01161 cumulative IPC: 0.479286 (Simulation time: 1 hr 53 min 48 sec) 
*** Reached end of trace: ./Traces/Traces/libquantum_964B.trace.xz
Heartbeat CPU 0 instructions: 1000000000 cycles: 1703156745 heartbeat IPC: 2.05274 cumulative IPC: 0.483923 (Simulation time: 1 hr 54 min 20 sec) 
Heartbeat CPU 0 instructions: 1010000000 cycles: 1711493405 heartbeat IPC: 1.19952 cumulative IPC: 0.487513 (Simulation time: 1 hr 54 min 55 sec) 
Heartbeat CPU 0 instructions: 1020000002 cycles: 1727561108 heartbeat IPC: 0.622367 cumulative IPC: 0.488805 (Simulation time: 1 hr 55 min 38 sec) 
Heartbeat CPU 0 instructions: 1030000004 cycles: 1751038829 heartbeat IPC: 0.425936 cumulative IPC: 0.487937 (Simulation time: 1 hr 57 min 14 sec) 
Heartbeat CPU 0 instructions: 1040000001 cycles: 1773109100 heartbeat IPC: 0.453098 cumulative IPC: 0.487491 (Simulation time: 1 hr 59 min 7 sec) 
Heartbeat CPU 0 instructions: 1050000003 cycles: 1778080242 heartbeat IPC: 2.01161 cumulative IPC: 0.491875 (Simulation time: 1 hr 59 min 41 sec) 
Heartbeat CPU 0 instructions: 1060000004 cycles: 1788277532 heartbeat IPC: 0.980653 cumulative IPC: 0.494743 (Simulation time: 2 hr 0 min 18 sec) 
Heartbeat CPU 0 instructions: 1070000003 cycles: 1804354720 heartbeat IPC: 0.621999 cumulative IPC: 0.495909 (Simulation time: 2 hr 1 min 0 sec) 
Heartbeat CPU 0 instructions: 1080000002 cycles: 1830685546 heartbeat IPC: 0.379783 cumulative IPC: 0.494192 (Simulation time: 2 hr 2 min 59 sec) 
Heartbeat CPU 0 instructions: 1090000001 cycles: 1848035204 heartbeat IPC: 0.57638 cumulative IPC: 0.494985 (Simulation time: 2 hr 4 min 29 sec) 
Heartbeat CPU 0 instructions: 1100000001 cycles: 1853004607 heartbeat IPC: 2.01231 cumulative IPC: 0.499167 (Simulation time: 2 hr 5 min 2 sec) 
Heartbeat CPU 0 instructions: 1110000003 cycles: 1876883632 heartbeat IPC: 0.418778 cumulative IPC: 0.498116 (Simulation time: 2 hr 7 min 7 sec) 
Heartbeat CPU 0 instructions: 1120000003 cycles: 1899128575 heartbeat IPC: 0.44954 cumulative IPC: 0.497532 (Simulation time: 2 hr 8 min 39 sec) 
Heartbeat CPU 0 instructions: 1130000003 cycles: 1915185316 heartbeat IPC: 0.622791 cumulative IPC: 0.49861 (Simulation time: 2 hr 9 min 23 sec) 
Heartbeat CPU 0 instructions: 1140000003 cycles: 1943239120 heartbeat IPC: 0.356458 cumulative IPC: 0.496504 (Simulation time: 2 hr 11 min 40 sec) 
Heartbeat CPU 0 instructions: 1150000002 cycles: 1964759091 heartbeat IPC: 0.464685 cumulative IPC: 0.496146 (Simulation time: 2 hr 13 min 4 sec) 
Heartbeat CPU 0 instructions: 1160000003 cycles: 1980820298 heartbeat IPC: 0.622618 cumulative IPC: 0.497198 (Simulation time: 2 hr 13 min 48 sec) 
Heartbeat CPU 0 instructions: 1170000000 cycles: 2008850991 heartbeat IPC: 0.356752 cumulative IPC: 0.495188 (Simulation time: 2 hr 14 min 40 sec) 
Heartbeat CPU 0 instructions: 1180000000 cycles: 2041499897 heartbeat IPC: 0.306289 cumulative IPC: 0.492091 (Simulation time: 2 hr 15 min 38 sec) 
Heartbeat CPU 0 instructions: 1190000003 cycles: 2060622951 heartbeat IPC: 0.522929 cumulative IPC: 0.492385 (Simulation time: 2 hr 16 min 22 sec) 
Heartbeat CPU 0 instructions: 1200000004 cycles: 2076687254 heartbeat IPC: 0.622498 cumulative IPC: 0.493416 (Simulation time: 2 hr 17 min 5 sec) 
Finished CPU 0 instructions: 1000000003 cycles: 2026687196 cumulative IPC: 0.493416 (Simulation time: 2 hr 17 min 5 sec) 

ChampSim completed all CPUs

Region of Interest Statistics

CPU 0 cumulative IPC: 0.493416 instructions: 1000000003 cycles: 2026687196
cpu0_DTLB TOTAL     ACCESS:   95644808  HIT:   95131427  MISS:     513381
cpu0_DTLB LOAD      ACCESS:   65331451  HIT:   65006572  MISS:     324879
cpu0_DTLB RFO       ACCESS:   30313357  HIT:   30124855  MISS:     188502
cpu0_DTLB PREFETCH  ACCESS:          0  HIT:          0  MISS:          0
cpu0_DTLB WRITEBACK ACCESS:          0  HIT:          0  MISS:          0
cpu0_DTLB TRANSLATION ACCESS:          0  HIT:          0  MISS:          0
cpu0_DTLB PREFETCH  REQUESTED:          0  ISSUED:          0  USEFUL:          0  USELESS:          0
cpu0_DTLB AVERAGE MISS LATENCY: 23.1565 cycles
cpu0_ITLB TOTAL     ACCESS:   28825977  HIT:   28825977  MISS:          0
cpu0_ITLB LOAD      ACCESS:   28825977  HIT:   28825977  MISS:          0
cpu0_ITLB RFO       ACCESS:          0  HIT:          0  MISS:          0
cpu0_ITLB PREFETCH  ACCESS:          0  HIT:          0  MISS:          0
cpu0_ITLB WRITEBACK ACCESS:          0  HIT:          0  MISS:          0
cpu0_ITLB TRANSLATION ACCESS:          0  HIT:          0  MISS:          0
cpu0_ITLB PREFETCH  REQUESTED:          0  ISSUED:          0  USEFUL:          0  USELESS:          0
cpu0_ITLB AVERAGE MISS LATENCY: -nan cycles
cpu0_L1I TOTAL     ACCESS:         31  HIT:         21  MISS:         10
cpu0_L1I LOAD      ACCESS:         31  HIT:         21  MISS:         10
cpu0_L1I RFO       ACCESS:          0  HIT:          0  MISS:          0
cpu0_L1I PREFETCH  ACCESS:          0  HIT:          0  MISS:          0
cpu0_L1I WRITEBACK ACCESS:          0  HIT:          0  MISS:          0
cpu0_L1I TRANSLATION ACCESS:          0  HIT:          0  MISS:          0
cpu0_L1I PREFETCH  REQUESTED:          0  ISSUED:          0  USEFUL:          0  USELESS:          0
cpu0_L1I AVERAGE MISS LATENCY: 242 cycles
cpu0_STLB TOTAL     ACCESS:     513381  HIT:          0  MISS:     513381
cpu0_STLB LOAD      ACCESS:     324879  HIT:          0  MISS:     324879
cpu0_STLB RFO       ACCESS:     188502  HIT:          0  MISS:     188502
cpu0_STLB PREFETCH  ACCESS:          0  HIT:          0  MISS:          0
cpu0_STLB WRITEBACK ACCESS:          0  HIT:          0  MISS:          0
cpu0_STLB TRANSLATION ACCESS:          0  HIT:          0  MISS:          0
cpu0_STLB PREFETCH  REQUESTED:          0  ISSUED:          0  USEFUL:          0  USELESS:          0
cpu0_STLB AVERAGE MISS LATENCY: 14.1565 cycles
cpu0_L1D TOTAL     ACCESS:   97852225  HIT:   65010934  MISS:   32841291
cpu0_L1D LOAD      ACCESS:   37469365  HIT:    4628703  MISS:   32840662
cpu0_L1D RFO       ACCESS:   59869479  HIT:   59869228  MISS:        251
cpu0_L1D PREFETCH  ACCESS:          0  HIT:          0  MISS:          0
cpu0_L1D WRITEBACK ACCESS:          0  HIT:          0  MISS:          0
cpu0_L1D TRANSLATION ACCESS:     513381  HIT:     513003  MISS:        378
cpu0_L1D PREFETCH  REQUESTED:          0  ISSUED:          0  USEFUL:          0  USELESS:          0
cpu0_L1D AVERAGE MISS LATENCY: 408.114 cycles
cpu0_L2C TOTAL     ACCESS:   49571303  HIT:   16730002  MISS:   32841301
cpu0_L2C LOAD      ACCESS:   32840672  HIT:          0  MISS:   32840672
cpu0_L2C RFO       ACCESS:        251  HIT:          0  MISS:        251
cpu0_L2C PREFETCH  ACCESS:          0  HIT:          0  MISS:          0
cpu0_L2C WRITEBACK ACCESS:   16730002  HIT:   16730002  MISS:          0
cpu0_L2C TRANSLATION ACCESS:        378  HIT:          0  MISS:        378
cpu0_L2C PREFETCH  REQUESTED:          0  ISSUED:          0  USEFUL:          0  USELESS:          0
cpu0_L2C AVERAGE MISS LATENCY: 397.114 cycles
LLC TOTAL     ACCESS:   49571300  HIT:    2908155  MISS:   46663145
LLC LOAD      ACCESS:   32840672  HIT:    1905916  MISS:   30934756
LLC RFO       ACCESS:        251  HIT:        246  MISS:          5
LLC PREFETCH  ACCESS:          0  HIT:          0  MISS:          0
LLC WRITEBACK ACCESS:   16729999  HIT:    1001700  MISS:   15728299
LLC TRANSLATION ACCESS:        378  HIT:        293  MISS:         85
LLC PREFETCH  REQUESTED:          0  ISSUED:          0  USEFUL:          0  USELESS:          0
LLC AVERAGE MISS LATENCY: 264.25 cycles

DRAM Statistics
 CHANNEL 0
 RQ ROW_BUFFER_HIT:   14985342  ROW_BUFFER_MISS:   15949502
 DBUS AVG_CONGESTED_CYCLE:    3.89478
 WQ ROW_BUFFER_HIT:    3238521  ROW_BUFFER_MISS:   12535922  FULL:    4285512


CPU 0 Branch Prediction Accuracy: 97.223% MPKI: 5.95627 Average ROB Occupancy at Mispredict: 26.6018
Branch type MPKI
BRANCH_DIRECT_JUMP: 3e-06
BRANCH_INDIRECT: 0
BRANCH_CONDITIONAL: 5.95623
BRANCH_DIRECT_CALL: 1.5e-05
BRANCH_INDIRECT_CALL: 0
BRANCH_RETURN: 1.6e-05

