
*** ChampSim Multicore Out-of-Order Simulator ***

Warmup Instructions: 200000000
Simulation Instructions: 1000000000
Number of CPUs: 1
Off-chip DRAM Size: 4 GiB Channels: 1 Width: 64-bit Data Rate: 3200 MT/s

VirtualMemory physical capacity: 8588881920 num_ppages: 2096895
VirtualMemory page size: 4096 log2_page_size: 12

CPU 0 runs ./Traces/Traces/GemsFDTD_109B.trace.xz
CPU 0 Bimodal branch predictor
Basic BTB sets: 1024 ways: 8 indirect buffer size: 4096 RAS size: 64
Initialize Hawkeye replacement policy state
Finished initializing Hawkeye replacement policy state
Heartbeat CPU 0 instructions: 10000004 cycles: 4294006 heartbeat IPC: 2.32883 cumulative IPC: 2.32883 (Simulation time: 0 hr 0 min 28 sec) 
Heartbeat CPU 0 instructions: 20000002 cycles: 8497062 heartbeat IPC: 2.37922 cumulative IPC: 2.35375 (Simulation time: 0 hr 0 min 56 sec) 
Heartbeat CPU 0 instructions: 30000001 cycles: 11012921 heartbeat IPC: 3.97479 cumulative IPC: 2.72407 (Simulation time: 0 hr 1 min 9 sec) 
Heartbeat CPU 0 instructions: 40000000 cycles: 13521513 heartbeat IPC: 3.9863 cumulative IPC: 2.95825 (Simulation time: 0 hr 1 min 22 sec) 
Heartbeat CPU 0 instructions: 50000004 cycles: 16417214 heartbeat IPC: 3.4534 cumulative IPC: 3.04558 (Simulation time: 0 hr 1 min 39 sec) 
Heartbeat CPU 0 instructions: 60000001 cycles: 20896737 heartbeat IPC: 2.23238 cumulative IPC: 2.87126 (Simulation time: 0 hr 2 min 8 sec) 
Heartbeat CPU 0 instructions: 70000001 cycles: 25376227 heartbeat IPC: 2.2324 cumulative IPC: 2.75849 (Simulation time: 0 hr 2 min 37 sec) 
Heartbeat CPU 0 instructions: 80000002 cycles: 29855758 heartbeat IPC: 2.23238 cumulative IPC: 2.67955 (Simulation time: 0 hr 3 min 7 sec) 
Heartbeat CPU 0 instructions: 90000002 cycles: 34335252 heartbeat IPC: 2.23239 cumulative IPC: 2.62121 (Simulation time: 0 hr 3 min 36 sec) 
Heartbeat CPU 0 instructions: 100000000 cycles: 38814770 heartbeat IPC: 2.23238 cumulative IPC: 2.57634 (Simulation time: 0 hr 4 min 10 sec) 
Heartbeat CPU 0 instructions: 110000000 cycles: 43294263 heartbeat IPC: 2.2324 cumulative IPC: 2.54075 (Simulation time: 0 hr 4 min 46 sec) 
Heartbeat CPU 0 instructions: 120000004 cycles: 47773766 heartbeat IPC: 2.23239 cumulative IPC: 2.51184 (Simulation time: 0 hr 5 min 22 sec) 
Heartbeat CPU 0 instructions: 130000004 cycles: 52253286 heartbeat IPC: 2.23238 cumulative IPC: 2.48788 (Simulation time: 0 hr 5 min 58 sec) 
Heartbeat CPU 0 instructions: 140000002 cycles: 56732785 heartbeat IPC: 2.23239 cumulative IPC: 2.46771 (Simulation time: 0 hr 6 min 35 sec) 
Heartbeat CPU 0 instructions: 150000004 cycles: 61212303 heartbeat IPC: 2.23238 cumulative IPC: 2.45049 (Simulation time: 0 hr 7 min 6 sec) 
Heartbeat CPU 0 instructions: 160000002 cycles: 65691801 heartbeat IPC: 2.23239 cumulative IPC: 2.43562 (Simulation time: 0 hr 7 min 36 sec) 
Heartbeat CPU 0 instructions: 170000002 cycles: 70171324 heartbeat IPC: 2.23238 cumulative IPC: 2.42264 (Simulation time: 0 hr 8 min 5 sec) 
Heartbeat CPU 0 instructions: 180000001 cycles: 74650822 heartbeat IPC: 2.23239 cumulative IPC: 2.41123 (Simulation time: 0 hr 8 min 34 sec) 
Heartbeat CPU 0 instructions: 190000002 cycles: 79130315 heartbeat IPC: 2.2324 cumulative IPC: 2.4011 (Simulation time: 0 hr 9 min 4 sec) 
Heartbeat CPU 0 instructions: 200000001 cycles: 83609841 heartbeat IPC: 2.23238 cumulative IPC: 2.39206 (Simulation time: 0 hr 9 min 33 sec) 

Warmup complete CPU 0 instructions: 200000001 cycles: 83609841 (Simulation time: 0 hr 9 min 33 sec) 

Heartbeat CPU 0 instructions: 210000002 cycles: 123314645 heartbeat IPC: 0.251859 cumulative IPC: 0.251859 (Simulation time: 0 hr 11 min 51 sec) 
Heartbeat CPU 0 instructions: 220000000 cycles: 162995190 heartbeat IPC: 0.252013 cumulative IPC: 0.251936 (Simulation time: 0 hr 13 min 54 sec) 
Heartbeat CPU 0 instructions: 230000000 cycles: 202717476 heartbeat IPC: 0.251748 cumulative IPC: 0.251873 (Simulation time: 0 hr 15 min 59 sec) 
Heartbeat CPU 0 instructions: 240000004 cycles: 242374244 heartbeat IPC: 0.252164 cumulative IPC: 0.251946 (Simulation time: 0 hr 18 min 14 sec) 
Heartbeat CPU 0 instructions: 250000004 cycles: 282224829 heartbeat IPC: 0.250937 cumulative IPC: 0.251743 (Simulation time: 0 hr 20 min 14 sec) 
Heartbeat CPU 0 instructions: 260000000 cycles: 322060895 heartbeat IPC: 0.251029 cumulative IPC: 0.251624 (Simulation time: 0 hr 22 min 25 sec) 
Heartbeat CPU 0 instructions: 270000002 cycles: 361650453 heartbeat IPC: 0.252592 cumulative IPC: 0.251762 (Simulation time: 0 hr 24 min 34 sec) 
Heartbeat CPU 0 instructions: 280000002 cycles: 401334590 heartbeat IPC: 0.25199 cumulative IPC: 0.25179 (Simulation time: 0 hr 26 min 56 sec) 
Heartbeat CPU 0 instructions: 290000000 cycles: 441120558 heartbeat IPC: 0.251345 cumulative IPC: 0.251741 (Simulation time: 0 hr 29 min 2 sec) 
Heartbeat CPU 0 instructions: 300000000 cycles: 478320330 heartbeat IPC: 0.268819 cumulative IPC: 0.25335 (Simulation time: 0 hr 30 min 58 sec) 
Heartbeat CPU 0 instructions: 310000004 cycles: 513471104 heartbeat IPC: 0.284489 cumulative IPC: 0.255897 (Simulation time: 0 hr 32 min 12 sec) 
Heartbeat CPU 0 instructions: 320000001 cycles: 548562837 heartbeat IPC: 0.284967 cumulative IPC: 0.258091 (Simulation time: 0 hr 33 min 26 sec) 
Heartbeat CPU 0 instructions: 330000002 cycles: 582632433 heartbeat IPC: 0.293517 cumulative IPC: 0.260509 (Simulation time: 0 hr 34 min 44 sec) 
Heartbeat CPU 0 instructions: 340000000 cycles: 616317505 heartbeat IPC: 0.296867 cumulative IPC: 0.262808 (Simulation time: 0 hr 36 min 4 sec) 
Heartbeat CPU 0 instructions: 350000000 cycles: 689109431 heartbeat IPC: 0.137378 cumulative IPC: 0.247729 (Simulation time: 0 hr 39 min 27 sec) 
Heartbeat CPU 0 instructions: 360000003 cycles: 723569112 heartbeat IPC: 0.290194 cumulative IPC: 0.250016 (Simulation time: 0 hr 40 min 39 sec) 
Heartbeat CPU 0 instructions: 370000003 cycles: 758794069 heartbeat IPC: 0.28389 cumulative IPC: 0.251783 (Simulation time: 0 hr 41 min 59 sec) 
Heartbeat CPU 0 instructions: 380000003 cycles: 793654277 heartbeat IPC: 0.28686 cumulative IPC: 0.253505 (Simulation time: 0 hr 43 min 29 sec) 
Heartbeat CPU 0 instructions: 390000001 cycles: 828316889 heartbeat IPC: 0.288495 cumulative IPC: 0.255134 (Simulation time: 0 hr 44 min 52 sec) 
Heartbeat CPU 0 instructions: 400000001 cycles: 862908891 heartbeat IPC: 0.289084 cumulative IPC: 0.256641 (Simulation time: 0 hr 46 min 11 sec) 
Heartbeat CPU 0 instructions: 410000004 cycles: 894575354 heartbeat IPC: 0.315792 cumulative IPC: 0.258951 (Simulation time: 0 hr 48 min 3 sec) 
Heartbeat CPU 0 instructions: 420000000 cycles: 928074490 heartbeat IPC: 0.298515 cumulative IPC: 0.26052 (Simulation time: 0 hr 49 min 47 sec) 
Heartbeat CPU 0 instructions: 430000001 cycles: 961479711 heartbeat IPC: 0.299354 cumulative IPC: 0.261998 (Simulation time: 0 hr 51 min 27 sec) 
Heartbeat CPU 0 instructions: 440000002 cycles: 990573190 heartbeat IPC: 0.34372 cumulative IPC: 0.264619 (Simulation time: 0 hr 53 min 13 sec) 
Heartbeat CPU 0 instructions: 450000002 cycles: 1023609155 heartbeat IPC: 0.3027 cumulative IPC: 0.265958 (Simulation time: 0 hr 55 min 10 sec) 
Heartbeat CPU 0 instructions: 460000003 cycles: 1056727929 heartbeat IPC: 0.301944 cumulative IPC: 0.267182 (Simulation time: 0 hr 56 min 49 sec) 
Heartbeat CPU 0 instructions: 470000003 cycles: 1090067860 heartbeat IPC: 0.299941 cumulative IPC: 0.268268 (Simulation time: 0 hr 58 min 51 sec) 
Heartbeat CPU 0 instructions: 480000001 cycles: 1124640160 heartbeat IPC: 0.289249 cumulative IPC: 0.268964 (Simulation time: 1 hr 0 min 45 sec) 
Heartbeat CPU 0 instructions: 490000002 cycles: 1157913052 heartbeat IPC: 0.300545 cumulative IPC: 0.269942 (Simulation time: 1 hr 2 min 37 sec) 
Heartbeat CPU 0 instructions: 500000000 cycles: 1186551678 heartbeat IPC: 0.349179 cumulative IPC: 0.272 (Simulation time: 1 hr 4 min 29 sec) 
Heartbeat CPU 0 instructions: 510000002 cycles: 1220008338 heartbeat IPC: 0.298894 cumulative IPC: 0.272792 (Simulation time: 1 hr 6 min 14 sec) 
Heartbeat CPU 0 instructions: 520000003 cycles: 1252932094 heartbeat IPC: 0.303732 cumulative IPC: 0.273663 (Simulation time: 1 hr 8 min 14 sec) 
Heartbeat CPU 0 instructions: 530000000 cycles: 1282540663 heartbeat IPC: 0.33774 cumulative IPC: 0.275245 (Simulation time: 1 hr 9 min 52 sec) 
Heartbeat CPU 0 instructions: 540000004 cycles: 1304742081 heartbeat IPC: 0.450422 cumulative IPC: 0.27843 (Simulation time: 1 hr 10 min 59 sec) 
Heartbeat CPU 0 instructions: 550000000 cycles: 1311446003 heartbeat IPC: 1.49166 cumulative IPC: 0.285054 (Simulation time: 1 hr 11 min 26 sec) 
Heartbeat CPU 0 instructions: 560000001 cycles: 1323900418 heartbeat IPC: 0.802928 cumulative IPC: 0.290255 (Simulation time: 1 hr 12 min 7 sec) 
Heartbeat CPU 0 instructions: 570000000 cycles: 1343057884 heartbeat IPC: 0.52199 cumulative IPC: 0.293779 (Simulation time: 1 hr 13 min 14 sec) 
Heartbeat CPU 0 instructions: 580000004 cycles: 1356181100 heartbeat IPC: 0.762009 cumulative IPC: 0.298608 (Simulation time: 1 hr 14 min 9 sec) 
Heartbeat CPU 0 instructions: 590000003 cycles: 1367496699 heartbeat IPC: 0.883736 cumulative IPC: 0.303765 (Simulation time: 1 hr 14 min 51 sec) 
Heartbeat CPU 0 instructions: 600000001 cycles: 1386856638 heartbeat IPC: 0.51653 cumulative IPC: 0.306926 (Simulation time: 1 hr 15 min 56 sec) 
Heartbeat CPU 0 instructions: 610000000 cycles: 1401766866 heartbeat IPC: 0.67068 cumulative IPC: 0.31104 (Simulation time: 1 hr 16 min 56 sec) 
Heartbeat CPU 0 instructions: 620000001 cycles: 1413545688 heartbeat IPC: 0.848981 cumulative IPC: 0.315805 (Simulation time: 1 hr 17 min 40 sec) 
Heartbeat CPU 0 instructions: 630000000 cycles: 1429389720 heartbeat IPC: 0.631152 cumulative IPC: 0.319517 (Simulation time: 1 hr 18 min 32 sec) 
Heartbeat CPU 0 instructions: 640000003 cycles: 1446878079 heartbeat IPC: 0.571809 cumulative IPC: 0.322754 (Simulation time: 1 hr 19 min 26 sec) 
Heartbeat CPU 0 instructions: 650000004 cycles: 1459407364 heartbeat IPC: 0.79813 cumulative IPC: 0.327083 (Simulation time: 1 hr 20 min 26 sec) 
Heartbeat CPU 0 instructions: 660000000 cycles: 1472065964 heartbeat IPC: 0.789976 cumulative IPC: 0.331303 (Simulation time: 1 hr 21 min 16 sec) 
Heartbeat CPU 0 instructions: 670000002 cycles: 1491689065 heartbeat IPC: 0.509604 cumulative IPC: 0.333788 (Simulation time: 1 hr 22 min 15 sec) 
Heartbeat CPU 0 instructions: 680000001 cycles: 1505506438 heartbeat IPC: 0.723727 cumulative IPC: 0.337577 (Simulation time: 1 hr 23 min 3 sec) 
Heartbeat CPU 0 instructions: 690000003 cycles: 1517016460 heartbeat IPC: 0.868808 cumulative IPC: 0.341843 (Simulation time: 1 hr 23 min 46 sec) 
Heartbeat CPU 0 instructions: 700000001 cycles: 1544510368 heartbeat IPC: 0.363717 cumulative IPC: 0.342255 (Simulation time: 1 hr 25 min 18 sec) 
Heartbeat CPU 0 instructions: 710000002 cycles: 1576126670 heartbeat IPC: 0.316293 cumulative IPC: 0.341705 (Simulation time: 1 hr 27 min 11 sec) 
Heartbeat CPU 0 instructions: 720000000 cycles: 1607830165 heartbeat IPC: 0.315423 cumulative IPC: 0.341158 (Simulation time: 1 hr 29 min 7 sec) 
Heartbeat CPU 0 instructions: 730000003 cycles: 1639606075 heartbeat IPC: 0.314704 cumulative IPC: 0.340618 (Simulation time: 1 hr 31 min 9 sec) 
Heartbeat CPU 0 instructions: 740000001 cycles: 1671259252 heartbeat IPC: 0.315924 cumulative IPC: 0.340125 (Simulation time: 1 hr 33 min 8 sec) 
Heartbeat CPU 0 instructions: 750000000 cycles: 1703121848 heartbeat IPC: 0.313848 cumulative IPC: 0.339608 (Simulation time: 1 hr 34 min 59 sec) 
Heartbeat CPU 0 instructions: 760000000 cycles: 1734856211 heartbeat IPC: 0.315116 cumulative IPC: 0.339138 (Simulation time: 1 hr 36 min 45 sec) 
Heartbeat CPU 0 instructions: 770000002 cycles: 1766466556 heartbeat IPC: 0.316352 cumulative IPC: 0.33871 (Simulation time: 1 hr 38 min 44 sec) 
Heartbeat CPU 0 instructions: 780000000 cycles: 1798272139 heartbeat IPC: 0.31441 cumulative IPC: 0.338259 (Simulation time: 1 hr 40 min 39 sec) 
Heartbeat CPU 0 instructions: 790000002 cycles: 1830116588 heartbeat IPC: 0.314027 cumulative IPC: 0.337817 (Simulation time: 1 hr 42 min 39 sec) 
Heartbeat CPU 0 instructions: 800000000 cycles: 1861920274 heartbeat IPC: 0.314429 cumulative IPC: 0.337399 (Simulation time: 1 hr 44 min 28 sec) 
Heartbeat CPU 0 instructions: 810000000 cycles: 1893686898 heartbeat IPC: 0.314796 cumulative IPC: 0.337002 (Simulation time: 1 hr 46 min 32 sec) 
Heartbeat CPU 0 instructions: 820000002 cycles: 1925462688 heartbeat IPC: 0.314705 cumulative IPC: 0.336618 (Simulation time: 1 hr 48 min 36 sec) 
Heartbeat CPU 0 instructions: 830000002 cycles: 1957235428 heartbeat IPC: 0.314735 cumulative IPC: 0.336246 (Simulation time: 1 hr 50 min 22 sec) 
Heartbeat CPU 0 instructions: 840000000 cycles: 1989034427 heartbeat IPC: 0.314475 cumulative IPC: 0.335883 (Simulation time: 1 hr 52 min 24 sec) 
Heartbeat CPU 0 instructions: 850000004 cycles: 2020764208 heartbeat IPC: 0.315161 cumulative IPC: 0.335544 (Simulation time: 1 hr 54 min 10 sec) 
Heartbeat CPU 0 instructions: 860000004 cycles: 2052446044 heartbeat IPC: 0.315638 cumulative IPC: 0.335223 (Simulation time: 1 hr 56 min 11 sec) 
Heartbeat CPU 0 instructions: 870000000 cycles: 2084256083 heartbeat IPC: 0.314366 cumulative IPC: 0.334892 (Simulation time: 1 hr 58 min 13 sec) 
Heartbeat CPU 0 instructions: 880000000 cycles: 2116053280 heartbeat IPC: 0.314493 cumulative IPC: 0.334573 (Simulation time: 2 hr 0 min 15 sec) 
Heartbeat CPU 0 instructions: 890000001 cycles: 2147765314 heartbeat IPC: 0.315338 cumulative IPC: 0.334277 (Simulation time: 2 hr 2 min 17 sec) 
Heartbeat CPU 0 instructions: 900000004 cycles: 2179580780 heartbeat IPC: 0.314313 cumulative IPC: 0.333974 (Simulation time: 2 hr 4 min 2 sec) 
Heartbeat CPU 0 instructions: 910000002 cycles: 2211341261 heartbeat IPC: 0.314857 cumulative IPC: 0.333689 (Simulation time: 2 hr 6 min 4 sec) 
Heartbeat CPU 0 instructions: 920000001 cycles: 2242961112 heartbeat IPC: 0.316257 cumulative IPC: 0.333433 (Simulation time: 2 hr 7 min 50 sec) 
Heartbeat CPU 0 instructions: 930000002 cycles: 2274671589 heartbeat IPC: 0.315353 cumulative IPC: 0.333172 (Simulation time: 2 hr 9 min 57 sec) 
Heartbeat CPU 0 instructions: 940000002 cycles: 2306465407 heartbeat IPC: 0.314527 cumulative IPC: 0.332905 (Simulation time: 2 hr 11 min 41 sec) 
Heartbeat CPU 0 instructions: 950000004 cycles: 2337901496 heartbeat IPC: 0.318106 cumulative IPC: 0.332699 (Simulation time: 2 hr 12 min 58 sec) 
Heartbeat CPU 0 instructions: 960000002 cycles: 2370145604 heartbeat IPC: 0.310134 cumulative IPC: 0.332381 (Simulation time: 2 hr 14 min 18 sec) 
Heartbeat CPU 0 instructions: 970000004 cycles: 2402375852 heartbeat IPC: 0.310268 cumulative IPC: 0.332073 (Simulation time: 2 hr 15 min 41 sec) 
Heartbeat CPU 0 instructions: 980000004 cycles: 2434390905 heartbeat IPC: 0.312353 cumulative IPC: 0.331805 (Simulation time: 2 hr 17 min 11 sec) 
Heartbeat CPU 0 instructions: 990000000 cycles: 2466236595 heartbeat IPC: 0.314014 cumulative IPC: 0.331567 (Simulation time: 2 hr 18 min 25 sec) 
*** Reached end of trace: ./Traces/Traces/GemsFDTD_109B.trace.xz
Heartbeat CPU 0 instructions: 1000000003 cycles: 2508300488 heartbeat IPC: 0.237734 cumulative IPC: 0.329939 (Simulation time: 2 hr 19 min 56 sec) 
Heartbeat CPU 0 instructions: 1010000002 cycles: 2540300307 heartbeat IPC: 0.312502 cumulative IPC: 0.329712 (Simulation time: 2 hr 21 min 49 sec) 
Heartbeat CPU 0 instructions: 1020000000 cycles: 2570763819 heartbeat IPC: 0.328261 cumulative IPC: 0.329694 (Simulation time: 2 hr 23 min 28 sec) 
Heartbeat CPU 0 instructions: 1030000004 cycles: 2591217698 heartbeat IPC: 0.488905 cumulative IPC: 0.330993 (Simulation time: 2 hr 24 min 45 sec) 
Heartbeat CPU 0 instructions: 1040000004 cycles: 2597167265 heartbeat IPC: 1.68079 cumulative IPC: 0.334188 (Simulation time: 2 hr 25 min 11 sec) 
Heartbeat CPU 0 instructions: 1050000002 cycles: 2617726438 heartbeat IPC: 0.486401 cumulative IPC: 0.335423 (Simulation time: 2 hr 26 min 21 sec) 
Heartbeat CPU 0 instructions: 1060000002 cycles: 2658291295 heartbeat IPC: 0.246519 cumulative IPC: 0.334022 (Simulation time: 2 hr 28 min 30 sec) 
Heartbeat CPU 0 instructions: 1070000002 cycles: 2698062534 heartbeat IPC: 0.251438 cumulative IPC: 0.332766 (Simulation time: 2 hr 30 min 26 sec) 
Heartbeat CPU 0 instructions: 1080000004 cycles: 2737789125 heartbeat IPC: 0.251721 cumulative IPC: 0.331553 (Simulation time: 2 hr 32 min 21 sec) 
Heartbeat CPU 0 instructions: 1090000003 cycles: 2777522121 heartbeat IPC: 0.25168 cumulative IPC: 0.330375 (Simulation time: 2 hr 34 min 16 sec) 
Heartbeat CPU 0 instructions: 1100000003 cycles: 2817325302 heartbeat IPC: 0.251236 cumulative IPC: 0.329222 (Simulation time: 2 hr 36 min 12 sec) 
Heartbeat CPU 0 instructions: 1110000004 cycles: 2857033608 heartbeat IPC: 0.251837 cumulative IPC: 0.328114 (Simulation time: 2 hr 38 min 7 sec) 
Heartbeat CPU 0 instructions: 1120000004 cycles: 2896722710 heartbeat IPC: 0.251958 cumulative IPC: 0.32704 (Simulation time: 2 hr 40 min 3 sec) 
Heartbeat CPU 0 instructions: 1130000001 cycles: 2936512083 heartbeat IPC: 0.251323 cumulative IPC: 0.325984 (Simulation time: 2 hr 41 min 58 sec) 
Heartbeat CPU 0 instructions: 1140000001 cycles: 2976153478 heartbeat IPC: 0.252262 cumulative IPC: 0.324973 (Simulation time: 2 hr 43 min 53 sec) 
Heartbeat CPU 0 instructions: 1150000000 cycles: 3015878712 heartbeat IPC: 0.251729 cumulative IPC: 0.323981 (Simulation time: 2 hr 45 min 49 sec) 
Heartbeat CPU 0 instructions: 1160000000 cycles: 3055638563 heartbeat IPC: 0.25151 cumulative IPC: 0.323012 (Simulation time: 2 hr 47 min 44 sec) 
Heartbeat CPU 0 instructions: 1170000002 cycles: 3095312960 heartbeat IPC: 0.252052 cumulative IPC: 0.322077 (Simulation time: 2 hr 49 min 39 sec) 
Heartbeat CPU 0 instructions: 1180000002 cycles: 3135074060 heartbeat IPC: 0.251502 cumulative IPC: 0.321157 (Simulation time: 2 hr 51 min 35 sec) 
Heartbeat CPU 0 instructions: 1190000003 cycles: 3174855523 heartbeat IPC: 0.251373 cumulative IPC: 0.320259 (Simulation time: 2 hr 53 min 30 sec) 
Heartbeat CPU 0 instructions: 1200000001 cycles: 3214632628 heartbeat IPC: 0.251401 cumulative IPC: 0.319384 (Simulation time: 2 hr 55 min 24 sec) 
Finished CPU 0 instructions: 1000000000 cycles: 3131022787 cumulative IPC: 0.319384 (Simulation time: 2 hr 55 min 24 sec) 

ChampSim completed all CPUs

Region of Interest Statistics

CPU 0 cumulative IPC: 0.319384 instructions: 1000000000 cycles: 3131022787
cpu0_DTLB TOTAL     ACCESS:  295808949  HIT:  289829486  MISS:    5979463
cpu0_DTLB LOAD      ACCESS:  233684124  HIT:  227801231  MISS:    5882893
cpu0_DTLB RFO       ACCESS:   62124825  HIT:   62028255  MISS:      96570
cpu0_DTLB PREFETCH  ACCESS:          0  HIT:          0  MISS:          0
cpu0_DTLB WRITEBACK ACCESS:          0  HIT:          0  MISS:          0
cpu0_DTLB TRANSLATION ACCESS:          0  HIT:          0  MISS:          0
cpu0_DTLB PREFETCH  REQUESTED:          0  ISSUED:          0  USEFUL:          0  USELESS:          0
cpu0_DTLB AVERAGE MISS LATENCY: 46.4926 cycles
cpu0_ITLB TOTAL     ACCESS:   15314897  HIT:   15314861  MISS:         36
cpu0_ITLB LOAD      ACCESS:   15314897  HIT:   15314861  MISS:         36
cpu0_ITLB RFO       ACCESS:          0  HIT:          0  MISS:          0
cpu0_ITLB PREFETCH  ACCESS:          0  HIT:          0  MISS:          0
cpu0_ITLB WRITEBACK ACCESS:          0  HIT:          0  MISS:          0
cpu0_ITLB TRANSLATION ACCESS:          0  HIT:          0  MISS:          0
cpu0_ITLB PREFETCH  REQUESTED:          0  ISSUED:          0  USEFUL:          0  USELESS:          0
cpu0_ITLB AVERAGE MISS LATENCY: 343.472 cycles
cpu0_L1I TOTAL     ACCESS:   37126266  HIT:   37124324  MISS:       1942
cpu0_L1I LOAD      ACCESS:   37126266  HIT:   37124324  MISS:       1942
cpu0_L1I RFO       ACCESS:          0  HIT:          0  MISS:          0
cpu0_L1I PREFETCH  ACCESS:          0  HIT:          0  MISS:          0
cpu0_L1I WRITEBACK ACCESS:          0  HIT:          0  MISS:          0
cpu0_L1I TRANSLATION ACCESS:          0  HIT:          0  MISS:          0
cpu0_L1I PREFETCH  REQUESTED:          0  ISSUED:          0  USEFUL:          0  USELESS:          0
cpu0_L1I AVERAGE MISS LATENCY: 438.375 cycles
cpu0_STLB TOTAL     ACCESS:    5979499  HIT:    4292089  MISS:    1687410
cpu0_STLB LOAD      ACCESS:    5882929  HIT:    4198818  MISS:    1684111
cpu0_STLB RFO       ACCESS:      96570  HIT:      93271  MISS:       3299
cpu0_STLB PREFETCH  ACCESS:          0  HIT:          0  MISS:          0
cpu0_STLB WRITEBACK ACCESS:          0  HIT:          0  MISS:          0
cpu0_STLB TRANSLATION ACCESS:          0  HIT:          0  MISS:          0
cpu0_STLB PREFETCH  REQUESTED:          0  ISSUED:          0  USEFUL:          0  USELESS:          0
cpu0_STLB AVERAGE MISS LATENCY: 132.29 cycles
cpu0_L1D TOTAL     ACCESS:  288688682  HIT:  248393168  MISS:   40295514
cpu0_L1D LOAD      ACCESS:  181923652  HIT:  141972564  MISS:   39951088
cpu0_L1D RFO       ACCESS:  105234497  HIT:  104969037  MISS:     265460
cpu0_L1D PREFETCH  ACCESS:          0  HIT:          0  MISS:          0
cpu0_L1D WRITEBACK ACCESS:          0  HIT:          0  MISS:          0
cpu0_L1D TRANSLATION ACCESS:    1530533  HIT:    1451567  MISS:      78966
cpu0_L1D PREFETCH  REQUESTED:          0  ISSUED:          0  USEFUL:          0  USELESS:          0
cpu0_L1D AVERAGE MISS LATENCY: 501.895 cycles
cpu0_L2C TOTAL     ACCESS:   54148368  HIT:   24517651  MISS:   29630717
cpu0_L2C LOAD      ACCESS:   39953030  HIT:   10559711  MISS:   29393319
cpu0_L2C RFO       ACCESS:     265460  HIT:      31307  MISS:     234153
cpu0_L2C PREFETCH  ACCESS:          0  HIT:          0  MISS:          0
cpu0_L2C WRITEBACK ACCESS:   13850912  HIT:   13849940  MISS:        972
cpu0_L2C TRANSLATION ACCESS:      78966  HIT:      76693  MISS:       2273
cpu0_L2C PREFETCH  REQUESTED:          0  ISSUED:          0  USEFUL:          0  USELESS:          0
cpu0_L2C AVERAGE MISS LATENCY: 667.455 cycles
LLC TOTAL     ACCESS:   41766066  HIT:    6517175  MISS:   35248891
LLC LOAD      ACCESS:   29393301  HIT:    5322142  MISS:   24071159
LLC RFO       ACCESS:     234153  HIT:     187934  MISS:      46219
LLC PREFETCH  ACCESS:          0  HIT:          0  MISS:          0
LLC WRITEBACK ACCESS:   12136339  HIT:    1006302  MISS:   11130037
LLC TRANSLATION ACCESS:       2273  HIT:        797  MISS:       1476
LLC PREFETCH  REQUESTED:          0  ISSUED:          0  USEFUL:          0  USELESS:          0
LLC AVERAGE MISS LATENCY: 543.416 cycles
Final OPTGen Hits: 119034
Final OPTGen Access: 569874
Final OPTGEN Hit Rate: 20.8878

DRAM Statistics
 CHANNEL 0
 RQ ROW_BUFFER_HIT:     183884  ROW_BUFFER_MISS:   23934749
 DBUS AVG_CONGESTED_CYCLE:    3.99529
 WQ ROW_BUFFER_HIT:     197042  ROW_BUFFER_MISS:   11755364  FULL:      90228


CPU 0 Branch Prediction Accuracy: 96.3002% MPKI: 0.821523 Average ROB Occupancy at Mispredict: 247.412
Branch type MPKI
BRANCH_DIRECT_JUMP: 7.1e-05
BRANCH_INDIRECT: 1e-06
BRANCH_CONDITIONAL: 0.821312
BRANCH_DIRECT_CALL: 7e-05
BRANCH_INDIRECT_CALL: 0
BRANCH_RETURN: 6.9e-05

