
*** ChampSim Multicore Out-of-Order Simulator ***

Warmup Instructions: 200000000
Simulation Instructions: 1000000000
Number of CPUs: 1
Off-chip DRAM Size: 4 GiB Channels: 1 Width: 64-bit Data Rate: 3200 MT/s

VirtualMemory physical capacity: 8588881920 num_ppages: 2096895
VirtualMemory page size: 4096 log2_page_size: 12

CPU 0 runs ./Traces/Traces/bzip2_183B.trace.xz
CPU 0 Bimodal branch predictor
Basic BTB sets: 1024 ways: 8 indirect buffer size: 4096 RAS size: 64
Initialize Hawkeye replacement policy state
Finished initializing Hawkeye replacement policy state
Heartbeat CPU 0 instructions: 10000000 cycles: 3166438 heartbeat IPC: 3.15812 cumulative IPC: 3.15812 (Simulation time: 0 hr 0 min 26 sec) 
Heartbeat CPU 0 instructions: 20000002 cycles: 6515205 heartbeat IPC: 2.98617 cumulative IPC: 3.06974 (Simulation time: 0 hr 0 min 53 sec) 
Heartbeat CPU 0 instructions: 30000001 cycles: 9664849 heartbeat IPC: 3.17496 cumulative IPC: 3.10403 (Simulation time: 0 hr 1 min 17 sec) 
Heartbeat CPU 0 instructions: 40000003 cycles: 12840400 heartbeat IPC: 3.14906 cumulative IPC: 3.11517 (Simulation time: 0 hr 1 min 42 sec) 
Heartbeat CPU 0 instructions: 50000000 cycles: 15874782 heartbeat IPC: 3.29556 cumulative IPC: 3.14965 (Simulation time: 0 hr 2 min 6 sec) 
Heartbeat CPU 0 instructions: 60000004 cycles: 18897725 heartbeat IPC: 3.30804 cumulative IPC: 3.17499 (Simulation time: 0 hr 2 min 30 sec) 
Heartbeat CPU 0 instructions: 70000003 cycles: 21783619 heartbeat IPC: 3.46513 cumulative IPC: 3.21342 (Simulation time: 0 hr 2 min 53 sec) 
Heartbeat CPU 0 instructions: 80000004 cycles: 24721976 heartbeat IPC: 3.40326 cumulative IPC: 3.23599 (Simulation time: 0 hr 3 min 17 sec) 
Heartbeat CPU 0 instructions: 90000003 cycles: 27760445 heartbeat IPC: 3.29113 cumulative IPC: 3.24202 (Simulation time: 0 hr 3 min 42 sec) 
Heartbeat CPU 0 instructions: 100000003 cycles: 30567835 heartbeat IPC: 3.56203 cumulative IPC: 3.27141 (Simulation time: 0 hr 4 min 5 sec) 
Heartbeat CPU 0 instructions: 110000003 cycles: 33425087 heartbeat IPC: 3.49987 cumulative IPC: 3.29094 (Simulation time: 0 hr 4 min 28 sec) 
Heartbeat CPU 0 instructions: 120000003 cycles: 36641789 heartbeat IPC: 3.10877 cumulative IPC: 3.27495 (Simulation time: 0 hr 4 min 53 sec) 
Heartbeat CPU 0 instructions: 130000000 cycles: 39457144 heartbeat IPC: 3.55195 cumulative IPC: 3.29471 (Simulation time: 0 hr 5 min 16 sec) 
Heartbeat CPU 0 instructions: 140000000 cycles: 42210891 heartbeat IPC: 3.63142 cumulative IPC: 3.31668 (Simulation time: 0 hr 5 min 30 sec) 
Heartbeat CPU 0 instructions: 150000000 cycles: 44710891 heartbeat IPC: 4 cumulative IPC: 3.35489 (Simulation time: 0 hr 5 min 47 sec) 
Heartbeat CPU 0 instructions: 160000000 cycles: 47210891 heartbeat IPC: 4 cumulative IPC: 3.38905 (Simulation time: 0 hr 6 min 4 sec) 
Heartbeat CPU 0 instructions: 170000001 cycles: 50408881 heartbeat IPC: 3.12696 cumulative IPC: 3.37242 (Simulation time: 0 hr 6 min 30 sec) 
Heartbeat CPU 0 instructions: 180000002 cycles: 54304134 heartbeat IPC: 2.56723 cumulative IPC: 3.31466 (Simulation time: 0 hr 7 min 5 sec) 
Heartbeat CPU 0 instructions: 190000001 cycles: 57502398 heartbeat IPC: 3.1267 cumulative IPC: 3.30421 (Simulation time: 0 hr 7 min 31 sec) 
Heartbeat CPU 0 instructions: 200000001 cycles: 60023767 heartbeat IPC: 3.9661 cumulative IPC: 3.33201 (Simulation time: 0 hr 7 min 50 sec) 

Warmup complete CPU 0 instructions: 200000001 cycles: 60023767 (Simulation time: 0 hr 7 min 50 sec) 

Heartbeat CPU 0 instructions: 210000000 cycles: 66555732 heartbeat IPC: 1.53093 cumulative IPC: 1.53093 (Simulation time: 0 hr 8 min 16 sec) 
Heartbeat CPU 0 instructions: 220000000 cycles: 73129323 heartbeat IPC: 1.52124 cumulative IPC: 1.52607 (Simulation time: 0 hr 8 min 43 sec) 
Heartbeat CPU 0 instructions: 230000000 cycles: 79870956 heartbeat IPC: 1.48332 cumulative IPC: 1.51155 (Simulation time: 0 hr 9 min 10 sec) 
Heartbeat CPU 0 instructions: 240000000 cycles: 85691014 heartbeat IPC: 1.7182 cumulative IPC: 1.55841 (Simulation time: 0 hr 9 min 42 sec) 
Heartbeat CPU 0 instructions: 250000000 cycles: 93531884 heartbeat IPC: 1.27537 cumulative IPC: 1.49218 (Simulation time: 0 hr 10 min 22 sec) 
Heartbeat CPU 0 instructions: 260000000 cycles: 102205281 heartbeat IPC: 1.15295 cumulative IPC: 1.42242 (Simulation time: 0 hr 10 min 55 sec) 
Heartbeat CPU 0 instructions: 270000004 cycles: 109985066 heartbeat IPC: 1.28538 cumulative IPC: 1.40108 (Simulation time: 0 hr 11 min 21 sec) 
Heartbeat CPU 0 instructions: 280000003 cycles: 117913271 heartbeat IPC: 1.26132 cumulative IPC: 1.38194 (Simulation time: 0 hr 11 min 44 sec) 
Heartbeat CPU 0 instructions: 290000003 cycles: 126170046 heartbeat IPC: 1.21113 cumulative IPC: 1.36062 (Simulation time: 0 hr 12 min 5 sec) 
Heartbeat CPU 0 instructions: 300000000 cycles: 134291849 heartbeat IPC: 1.23125 cumulative IPC: 1.34647 (Simulation time: 0 hr 12 min 26 sec) 
Heartbeat CPU 0 instructions: 310000000 cycles: 143010916 heartbeat IPC: 1.14691 cumulative IPC: 1.32551 (Simulation time: 0 hr 12 min 47 sec) 
Heartbeat CPU 0 instructions: 320000004 cycles: 151175775 heartbeat IPC: 1.22476 cumulative IPC: 1.31648 (Simulation time: 0 hr 13 min 7 sec) 
Heartbeat CPU 0 instructions: 330000002 cycles: 159282232 heartbeat IPC: 1.23358 cumulative IPC: 1.30971 (Simulation time: 0 hr 13 min 29 sec) 
Heartbeat CPU 0 instructions: 340000004 cycles: 167425270 heartbeat IPC: 1.22804 cumulative IPC: 1.30352 (Simulation time: 0 hr 13 min 50 sec) 
Heartbeat CPU 0 instructions: 350000000 cycles: 175345034 heartbeat IPC: 1.26266 cumulative IPC: 1.30071 (Simulation time: 0 hr 14 min 10 sec) 
Heartbeat CPU 0 instructions: 360000000 cycles: 183741455 heartbeat IPC: 1.19098 cumulative IPC: 1.29327 (Simulation time: 0 hr 14 min 33 sec) 
Heartbeat CPU 0 instructions: 370000004 cycles: 192318384 heartbeat IPC: 1.16592 cumulative IPC: 1.28501 (Simulation time: 0 hr 14 min 55 sec) 
Heartbeat CPU 0 instructions: 380000004 cycles: 201105306 heartbeat IPC: 1.13805 cumulative IPC: 1.27586 (Simulation time: 0 hr 15 min 20 sec) 
Heartbeat CPU 0 instructions: 390000004 cycles: 210581461 heartbeat IPC: 1.05528 cumulative IPC: 1.26197 (Simulation time: 0 hr 15 min 51 sec) 
Heartbeat CPU 0 instructions: 400000001 cycles: 215382632 heartbeat IPC: 2.08282 cumulative IPC: 1.28734 (Simulation time: 0 hr 16 min 13 sec) 
Heartbeat CPU 0 instructions: 410000003 cycles: 220349887 heartbeat IPC: 2.01318 cumulative IPC: 1.30983 (Simulation time: 0 hr 16 min 34 sec) 
Heartbeat CPU 0 instructions: 420000003 cycles: 225394575 heartbeat IPC: 1.98228 cumulative IPC: 1.33034 (Simulation time: 0 hr 16 min 56 sec) 
Heartbeat CPU 0 instructions: 430000004 cycles: 232489891 heartbeat IPC: 1.40938 cumulative IPC: 1.3336 (Simulation time: 0 hr 17 min 30 sec) 
Heartbeat CPU 0 instructions: 440000003 cycles: 240211304 heartbeat IPC: 1.2951 cumulative IPC: 1.33195 (Simulation time: 0 hr 18 min 8 sec) 
Heartbeat CPU 0 instructions: 450000004 cycles: 247774043 heartbeat IPC: 1.32227 cumulative IPC: 1.33156 (Simulation time: 0 hr 18 min 30 sec) 
Heartbeat CPU 0 instructions: 460000000 cycles: 253687662 heartbeat IPC: 1.69101 cumulative IPC: 1.34253 (Simulation time: 0 hr 18 min 57 sec) 
Heartbeat CPU 0 instructions: 470000003 cycles: 260481330 heartbeat IPC: 1.47196 cumulative IPC: 1.34692 (Simulation time: 0 hr 19 min 23 sec) 
Heartbeat CPU 0 instructions: 480000000 cycles: 267018894 heartbeat IPC: 1.52962 cumulative IPC: 1.35269 (Simulation time: 0 hr 19 min 50 sec) 
Heartbeat CPU 0 instructions: 490000004 cycles: 272108184 heartbeat IPC: 1.96491 cumulative IPC: 1.36738 (Simulation time: 0 hr 20 min 15 sec) 
Heartbeat CPU 0 instructions: 500000002 cycles: 279673488 heartbeat IPC: 1.32182 cumulative IPC: 1.36581 (Simulation time: 0 hr 20 min 56 sec) 
Heartbeat CPU 0 instructions: 510000000 cycles: 287901507 heartbeat IPC: 1.21536 cumulative IPC: 1.36038 (Simulation time: 0 hr 21 min 29 sec) 
Heartbeat CPU 0 instructions: 520000002 cycles: 296248059 heartbeat IPC: 1.1981 cumulative IPC: 1.35464 (Simulation time: 0 hr 21 min 54 sec) 
Heartbeat CPU 0 instructions: 530000000 cycles: 304798236 heartbeat IPC: 1.16957 cumulative IPC: 1.34818 (Simulation time: 0 hr 22 min 17 sec) 
Heartbeat CPU 0 instructions: 540000000 cycles: 313364651 heartbeat IPC: 1.16735 cumulative IPC: 1.34207 (Simulation time: 0 hr 22 min 39 sec) 
Heartbeat CPU 0 instructions: 550000003 cycles: 322123377 heartbeat IPC: 1.14172 cumulative IPC: 1.33537 (Simulation time: 0 hr 23 min 2 sec) 
Heartbeat CPU 0 instructions: 560000002 cycles: 330774165 heartbeat IPC: 1.15596 cumulative IPC: 1.32964 (Simulation time: 0 hr 23 min 24 sec) 
Heartbeat CPU 0 instructions: 570000002 cycles: 339439585 heartbeat IPC: 1.15401 cumulative IPC: 1.32419 (Simulation time: 0 hr 23 min 46 sec) 
Heartbeat CPU 0 instructions: 580000002 cycles: 347727324 heartbeat IPC: 1.2066 cumulative IPC: 1.3208 (Simulation time: 0 hr 24 min 8 sec) 
Heartbeat CPU 0 instructions: 590000004 cycles: 356191392 heartbeat IPC: 1.18147 cumulative IPC: 1.31682 (Simulation time: 0 hr 24 min 31 sec) 
Heartbeat CPU 0 instructions: 600000003 cycles: 364965987 heartbeat IPC: 1.13965 cumulative IPC: 1.31172 (Simulation time: 0 hr 24 min 54 sec) 
Heartbeat CPU 0 instructions: 610000003 cycles: 373720641 heartbeat IPC: 1.14225 cumulative IPC: 1.30699 (Simulation time: 0 hr 25 min 16 sec) 
Heartbeat CPU 0 instructions: 620000003 cycles: 382462055 heartbeat IPC: 1.14398 cumulative IPC: 1.30257 (Simulation time: 0 hr 25 min 39 sec) 
Heartbeat CPU 0 instructions: 630000000 cycles: 391990842 heartbeat IPC: 1.04945 cumulative IPC: 1.29531 (Simulation time: 0 hr 26 min 6 sec) 
Heartbeat CPU 0 instructions: 640000000 cycles: 397565266 heartbeat IPC: 1.79391 cumulative IPC: 1.30354 (Simulation time: 0 hr 26 min 26 sec) 
Heartbeat CPU 0 instructions: 650000001 cycles: 402481383 heartbeat IPC: 2.03413 cumulative IPC: 1.31403 (Simulation time: 0 hr 26 min 45 sec) 
Heartbeat CPU 0 instructions: 660000000 cycles: 407663691 heartbeat IPC: 1.92964 cumulative IPC: 1.32321 (Simulation time: 0 hr 27 min 7 sec) 
Heartbeat CPU 0 instructions: 670000002 cycles: 414469892 heartbeat IPC: 1.46925 cumulative IPC: 1.32601 (Simulation time: 0 hr 27 min 39 sec) 
Heartbeat CPU 0 instructions: 680000000 cycles: 422132231 heartbeat IPC: 1.30508 cumulative IPC: 1.32557 (Simulation time: 0 hr 28 min 18 sec) 
Heartbeat CPU 0 instructions: 690000002 cycles: 429676666 heartbeat IPC: 1.32548 cumulative IPC: 1.32557 (Simulation time: 0 hr 28 min 46 sec) 
Heartbeat CPU 0 instructions: 700000000 cycles: 435756363 heartbeat IPC: 1.64482 cumulative IPC: 1.33073 (Simulation time: 0 hr 29 min 10 sec) 
Heartbeat CPU 0 instructions: 710000002 cycles: 442631484 heartbeat IPC: 1.45452 cumulative IPC: 1.33296 (Simulation time: 0 hr 29 min 37 sec) 
Heartbeat CPU 0 instructions: 720000001 cycles: 449429569 heartbeat IPC: 1.471 cumulative IPC: 1.33537 (Simulation time: 0 hr 30 min 4 sec) 
Heartbeat CPU 0 instructions: 730000001 cycles: 454716170 heartbeat IPC: 1.89157 cumulative IPC: 1.34282 (Simulation time: 0 hr 30 min 29 sec) 
Heartbeat CPU 0 instructions: 740000004 cycles: 459496173 heartbeat IPC: 2.09205 cumulative IPC: 1.35178 (Simulation time: 0 hr 31 min 1 sec) 
Heartbeat CPU 0 instructions: 750000001 cycles: 467569356 heartbeat IPC: 1.23867 cumulative IPC: 1.34954 (Simulation time: 0 hr 31 min 31 sec) 
Heartbeat CPU 0 instructions: 760000001 cycles: 476022081 heartbeat IPC: 1.18305 cumulative IPC: 1.34616 (Simulation time: 0 hr 31 min 56 sec) 
Heartbeat CPU 0 instructions: 770000001 cycles: 484626331 heartbeat IPC: 1.16222 cumulative IPC: 1.34243 (Simulation time: 0 hr 32 min 19 sec) 
Heartbeat CPU 0 instructions: 780000001 cycles: 493110329 heartbeat IPC: 1.17869 cumulative IPC: 1.33922 (Simulation time: 0 hr 32 min 40 sec) 
Heartbeat CPU 0 instructions: 790000001 cycles: 501675371 heartbeat IPC: 1.16754 cumulative IPC: 1.33589 (Simulation time: 0 hr 33 min 2 sec) 
Heartbeat CPU 0 instructions: 800000000 cycles: 510439999 heartbeat IPC: 1.14095 cumulative IPC: 1.3321 (Simulation time: 0 hr 33 min 27 sec) 
Heartbeat CPU 0 instructions: 810000001 cycles: 518738837 heartbeat IPC: 1.20499 cumulative IPC: 1.3298 (Simulation time: 0 hr 33 min 48 sec) 
Heartbeat CPU 0 instructions: 820000001 cycles: 527401569 heartbeat IPC: 1.15437 cumulative IPC: 1.32655 (Simulation time: 0 hr 34 min 11 sec) 
Heartbeat CPU 0 instructions: 830000000 cycles: 536092009 heartbeat IPC: 1.15069 cumulative IPC: 1.32334 (Simulation time: 0 hr 34 min 33 sec) 
Heartbeat CPU 0 instructions: 840000001 cycles: 545083158 heartbeat IPC: 1.11221 cumulative IPC: 1.31943 (Simulation time: 0 hr 34 min 56 sec) 
Heartbeat CPU 0 instructions: 850000002 cycles: 554339614 heartbeat IPC: 1.08033 cumulative IPC: 1.31495 (Simulation time: 0 hr 35 min 20 sec) 
Heartbeat CPU 0 instructions: 860000001 cycles: 563430432 heartbeat IPC: 1.10001 cumulative IPC: 1.31107 (Simulation time: 0 hr 35 min 45 sec) 
Heartbeat CPU 0 instructions: 870000001 cycles: 573428998 heartbeat IPC: 1.00014 cumulative IPC: 1.30501 (Simulation time: 0 hr 36 min 18 sec) 
Heartbeat CPU 0 instructions: 880000001 cycles: 578791542 heartbeat IPC: 1.86479 cumulative IPC: 1.3108 (Simulation time: 0 hr 36 min 41 sec) 
Heartbeat CPU 0 instructions: 890000000 cycles: 583821734 heartbeat IPC: 1.988 cumulative IPC: 1.3173 (Simulation time: 0 hr 37 min 0 sec) 
Heartbeat CPU 0 instructions: 900000002 cycles: 589527972 heartbeat IPC: 1.75247 cumulative IPC: 1.32199 (Simulation time: 0 hr 37 min 27 sec) 
Heartbeat CPU 0 instructions: 910000003 cycles: 597192141 heartbeat IPC: 1.30477 cumulative IPC: 1.32175 (Simulation time: 0 hr 38 min 7 sec) 
Heartbeat CPU 0 instructions: 920000003 cycles: 604807464 heartbeat IPC: 1.31314 cumulative IPC: 1.32163 (Simulation time: 0 hr 38 min 39 sec) 
Heartbeat CPU 0 instructions: 930000001 cycles: 611032125 heartbeat IPC: 1.60651 cumulative IPC: 1.32484 (Simulation time: 0 hr 39 min 3 sec) 
Heartbeat CPU 0 instructions: 940000000 cycles: 617665270 heartbeat IPC: 1.50758 cumulative IPC: 1.32702 (Simulation time: 0 hr 39 min 30 sec) 
Heartbeat CPU 0 instructions: 950000002 cycles: 624330397 heartbeat IPC: 1.50035 cumulative IPC: 1.32906 (Simulation time: 0 hr 39 min 55 sec) 
Heartbeat CPU 0 instructions: 960000000 cycles: 629957536 heartbeat IPC: 1.7771 cumulative IPC: 1.33349 (Simulation time: 0 hr 40 min 23 sec) 
Heartbeat CPU 0 instructions: 970000001 cycles: 634455141 heartbeat IPC: 2.22341 cumulative IPC: 1.34046 (Simulation time: 0 hr 40 min 54 sec) 
Heartbeat CPU 0 instructions: 980000002 cycles: 640951467 heartbeat IPC: 1.53933 cumulative IPC: 1.34268 (Simulation time: 0 hr 41 min 31 sec) 
Heartbeat CPU 0 instructions: 990000001 cycles: 649120544 heartbeat IPC: 1.22413 cumulative IPC: 1.34104 (Simulation time: 0 hr 42 min 2 sec) 
*** Reached end of trace: ./Traces/Traces/bzip2_183B.trace.xz
Heartbeat CPU 0 instructions: 1000000000 cycles: 655998260 heartbeat IPC: 1.45397 cumulative IPC: 1.34234 (Simulation time: 0 hr 42 min 31 sec) 
Heartbeat CPU 0 instructions: 1010000002 cycles: 663546947 heartbeat IPC: 1.32473 cumulative IPC: 1.34212 (Simulation time: 0 hr 42 min 56 sec) 
Heartbeat CPU 0 instructions: 1020000000 cycles: 670581235 heartbeat IPC: 1.42161 cumulative IPC: 1.34303 (Simulation time: 0 hr 43 min 21 sec) 
Heartbeat CPU 0 instructions: 1030000001 cycles: 678077184 heartbeat IPC: 1.33405 cumulative IPC: 1.34293 (Simulation time: 0 hr 43 min 43 sec) 
Heartbeat CPU 0 instructions: 1040000002 cycles: 685421995 heartbeat IPC: 1.36151 cumulative IPC: 1.34314 (Simulation time: 0 hr 44 min 6 sec) 
Heartbeat CPU 0 instructions: 1050000001 cycles: 693159887 heartbeat IPC: 1.29234 cumulative IPC: 1.34252 (Simulation time: 0 hr 44 min 29 sec) 
Heartbeat CPU 0 instructions: 1060000004 cycles: 700683177 heartbeat IPC: 1.32921 cumulative IPC: 1.34237 (Simulation time: 0 hr 44 min 52 sec) 
Heartbeat CPU 0 instructions: 1070000002 cycles: 709205480 heartbeat IPC: 1.17339 cumulative IPC: 1.34015 (Simulation time: 0 hr 45 min 14 sec) 
Heartbeat CPU 0 instructions: 1080000000 cycles: 717105232 heartbeat IPC: 1.26586 cumulative IPC: 1.33926 (Simulation time: 0 hr 45 min 36 sec) 
Heartbeat CPU 0 instructions: 1090000002 cycles: 725338900 heartbeat IPC: 1.21453 cumulative IPC: 1.33771 (Simulation time: 0 hr 46 min 0 sec) 
Heartbeat CPU 0 instructions: 1100000002 cycles: 734463063 heartbeat IPC: 1.09599 cumulative IPC: 1.33444 (Simulation time: 0 hr 46 min 23 sec) 
Heartbeat CPU 0 instructions: 1110000003 cycles: 743539289 heartbeat IPC: 1.10178 cumulative IPC: 1.33135 (Simulation time: 0 hr 46 min 47 sec) 
Heartbeat CPU 0 instructions: 1120000000 cycles: 750814062 heartbeat IPC: 1.37461 cumulative IPC: 1.33181 (Simulation time: 0 hr 47 min 11 sec) 
Heartbeat CPU 0 instructions: 1130000000 cycles: 760353463 heartbeat IPC: 1.04828 cumulative IPC: 1.32795 (Simulation time: 0 hr 47 min 38 sec) 
Heartbeat CPU 0 instructions: 1140000002 cycles: 767303260 heartbeat IPC: 1.43889 cumulative IPC: 1.32904 (Simulation time: 0 hr 48 min 11 sec) 
Heartbeat CPU 0 instructions: 1150000004 cycles: 771769474 heartbeat IPC: 2.23903 cumulative IPC: 1.33475 (Simulation time: 0 hr 48 min 27 sec) 
Heartbeat CPU 0 instructions: 1160000002 cycles: 776970537 heartbeat IPC: 1.92268 cumulative IPC: 1.33901 (Simulation time: 0 hr 48 min 50 sec) 
Heartbeat CPU 0 instructions: 1170000002 cycles: 783166893 heartbeat IPC: 1.61385 cumulative IPC: 1.34137 (Simulation time: 0 hr 49 min 19 sec) 
Heartbeat CPU 0 instructions: 1180000000 cycles: 790770832 heartbeat IPC: 1.31511 cumulative IPC: 1.34109 (Simulation time: 0 hr 50 min 0 sec) 
Heartbeat CPU 0 instructions: 1190000002 cycles: 798360187 heartbeat IPC: 1.31764 cumulative IPC: 1.34085 (Simulation time: 0 hr 50 min 30 sec) 
Heartbeat CPU 0 instructions: 1200000000 cycles: 804462267 heartbeat IPC: 1.63879 cumulative IPC: 1.34329 (Simulation time: 0 hr 50 min 55 sec) 
Finished CPU 0 instructions: 1000000004 cycles: 744438501 cumulative IPC: 1.34329 (Simulation time: 0 hr 50 min 55 sec) 

ChampSim completed all CPUs

Region of Interest Statistics

CPU 0 cumulative IPC: 1.34329 instructions: 1000000004 cycles: 744438501
cpu0_DTLB TOTAL     ACCESS:  205375964  HIT:  199937830  MISS:    5438134
cpu0_DTLB LOAD      ACCESS:  143186952  HIT:  140548882  MISS:    2638070
cpu0_DTLB RFO       ACCESS:   62189012  HIT:   59388948  MISS:    2800064
cpu0_DTLB PREFETCH  ACCESS:          0  HIT:          0  MISS:          0
cpu0_DTLB WRITEBACK ACCESS:          0  HIT:          0  MISS:          0
cpu0_DTLB TRANSLATION ACCESS:          0  HIT:          0  MISS:          0
cpu0_DTLB PREFETCH  REQUESTED:          0  ISSUED:          0  USEFUL:          0  USELESS:          0
cpu0_DTLB AVERAGE MISS LATENCY: 9.10504 cycles
cpu0_ITLB TOTAL     ACCESS:   79900223  HIT:   79900223  MISS:          0
cpu0_ITLB LOAD      ACCESS:   79900223  HIT:   79900223  MISS:          0
cpu0_ITLB RFO       ACCESS:          0  HIT:          0  MISS:          0
cpu0_ITLB PREFETCH  ACCESS:          0  HIT:          0  MISS:          0
cpu0_ITLB WRITEBACK ACCESS:          0  HIT:          0  MISS:          0
cpu0_ITLB TRANSLATION ACCESS:          0  HIT:          0  MISS:          0
cpu0_ITLB PREFETCH  REQUESTED:          0  ISSUED:          0  USEFUL:          0  USELESS:          0
cpu0_ITLB AVERAGE MISS LATENCY: -nan cycles
cpu0_L1I TOTAL     ACCESS:   14379749  HIT:   14379554  MISS:        195
cpu0_L1I LOAD      ACCESS:   14379749  HIT:   14379554  MISS:        195
cpu0_L1I RFO       ACCESS:          0  HIT:          0  MISS:          0
cpu0_L1I PREFETCH  ACCESS:          0  HIT:          0  MISS:          0
cpu0_L1I WRITEBACK ACCESS:          0  HIT:          0  MISS:          0
cpu0_L1I TRANSLATION ACCESS:          0  HIT:          0  MISS:          0
cpu0_L1I PREFETCH  REQUESTED:          0  ISSUED:          0  USEFUL:          0  USELESS:          0
cpu0_L1I AVERAGE MISS LATENCY: 236.841 cycles
cpu0_STLB TOTAL     ACCESS:    5438134  HIT:    5436482  MISS:       1652
cpu0_STLB LOAD      ACCESS:    2638070  HIT:    2637296  MISS:        774
cpu0_STLB RFO       ACCESS:    2800064  HIT:    2799186  MISS:        878
cpu0_STLB PREFETCH  ACCESS:          0  HIT:          0  MISS:          0
cpu0_STLB WRITEBACK ACCESS:          0  HIT:          0  MISS:          0
cpu0_STLB TRANSLATION ACCESS:          0  HIT:          0  MISS:          0
cpu0_STLB PREFETCH  REQUESTED:          0  ISSUED:          0  USEFUL:          0  USELESS:          0
cpu0_STLB AVERAGE MISS LATENCY: 190.539 cycles
cpu0_L1D TOTAL     ACCESS:  231112126  HIT:  218124095  MISS:   12988031
cpu0_L1D LOAD      ACCESS:  137579596  HIT:  127577766  MISS:   10001830
cpu0_L1D RFO       ACCESS:   93530924  HIT:   90545048  MISS:    2985876
cpu0_L1D PREFETCH  ACCESS:          0  HIT:          0  MISS:          0
cpu0_L1D WRITEBACK ACCESS:          0  HIT:          0  MISS:          0
cpu0_L1D TRANSLATION ACCESS:       1606  HIT:       1281  MISS:        325
cpu0_L1D PREFETCH  REQUESTED:          0  ISSUED:          0  USEFUL:          0  USELESS:          0
cpu0_L1D AVERAGE MISS LATENCY: 84.1278 cycles
cpu0_L2C TOTAL     ACCESS:   16814800  HIT:   10953496  MISS:    5861304
cpu0_L2C LOAD      ACCESS:   10000771  HIT:    6171850  MISS:    3828921
cpu0_L2C RFO       ACCESS:    2985014  HIT:     955080  MISS:    2029934
cpu0_L2C PREFETCH  ACCESS:          0  HIT:          0  MISS:          0
cpu0_L2C WRITEBACK ACCESS:    3828690  HIT:    3826291  MISS:       2399
cpu0_L2C TRANSLATION ACCESS:        325  HIT:        275  MISS:         50
cpu0_L2C PREFETCH  REQUESTED:          0  ISSUED:          0  USEFUL:          0  USELESS:          0
cpu0_L2C AVERAGE MISS LATENCY: 161.908 cycles
LLC TOTAL     ACCESS:    8228005  HIT:    6429255  MISS:    1798750
LLC LOAD      ACCESS:    3828521  HIT:    3022853  MISS:     805668
LLC RFO       ACCESS:    2029807  HIT:    1300380  MISS:     729427
LLC PREFETCH  ACCESS:          0  HIT:          0  MISS:          0
LLC WRITEBACK ACCESS:    2369627  HIT:    2106008  MISS:     263619
LLC TRANSLATION ACCESS:         50  HIT:         14  MISS:         36
LLC PREFETCH  REQUESTED:          0  ISSUED:          0  USEFUL:          0  USELESS:          0
LLC AVERAGE MISS LATENCY: 459.175 cycles

DRAM Statistics
 CHANNEL 0
 RQ ROW_BUFFER_HIT:     250060  ROW_BUFFER_MISS:    1280280
 DBUS AVG_CONGESTED_CYCLE:    3.97494
 WQ ROW_BUFFER_HIT:      77986  ROW_BUFFER_MISS:     930895  FULL:      19842


CPU 0 Branch Prediction Accuracy: 89.9704% MPKI: 15.0634 Average ROB Occupancy at Mispredict: 44.5765
Branch type MPKI
BRANCH_DIRECT_JUMP: 7e-06
BRANCH_INDIRECT: 0
BRANCH_CONDITIONAL: 15.0634
BRANCH_DIRECT_CALL: 4e-06
BRANCH_INDIRECT_CALL: 0
BRANCH_RETURN: 4e-06

