
*** ChampSim Multicore Out-of-Order Simulator ***

Warmup Instructions: 200000000
Simulation Instructions: 1000000000
Number of CPUs: 1
Off-chip DRAM Size: 4 GiB Channels: 1 Width: 64-bit Data Rate: 3200 MT/s

VirtualMemory physical capacity: 8588881920 num_ppages: 2096895
VirtualMemory page size: 4096 log2_page_size: 12

CPU 0 runs Traces/bwaves_98B.trace.xz
CPU 0 Bimodal branch predictor
Basic BTB sets: 1024 ways: 8 indirect buffer size: 4096 RAS size: 64
Initialize arch replacement policy state
Finished initializing arch replacement policy state
Heartbeat CPU 0 instructions: 10000001 cycles: 2665121 heartbeat IPC: 3.75218 cumulative IPC: 3.75218 (Simulation time: 0 hr 0 min 17 sec) 
Heartbeat CPU 0 instructions: 20000000 cycles: 5310313 heartbeat IPC: 3.78044 cumulative IPC: 3.76626 (Simulation time: 0 hr 0 min 34 sec) 
Heartbeat CPU 0 instructions: 30000004 cycles: 7940195 heartbeat IPC: 3.80245 cumulative IPC: 3.77825 (Simulation time: 0 hr 0 min 51 sec) 
Heartbeat CPU 0 instructions: 40000001 cycles: 10577381 heartbeat IPC: 3.79192 cumulative IPC: 3.78165 (Simulation time: 0 hr 1 min 7 sec) 
Heartbeat CPU 0 instructions: 50000001 cycles: 13245764 heartbeat IPC: 3.74759 cumulative IPC: 3.77479 (Simulation time: 0 hr 1 min 24 sec) 
Heartbeat CPU 0 instructions: 60000000 cycles: 15899758 heartbeat IPC: 3.76791 cumulative IPC: 3.77364 (Simulation time: 0 hr 1 min 41 sec) 
Heartbeat CPU 0 instructions: 70000000 cycles: 18549874 heartbeat IPC: 3.77342 cumulative IPC: 3.77361 (Simulation time: 0 hr 1 min 58 sec) 
Heartbeat CPU 0 instructions: 80000000 cycles: 21172556 heartbeat IPC: 3.81289 cumulative IPC: 3.77848 (Simulation time: 0 hr 2 min 15 sec) 
Heartbeat CPU 0 instructions: 90000002 cycles: 23826985 heartbeat IPC: 3.76729 cumulative IPC: 3.77723 (Simulation time: 0 hr 2 min 32 sec) 
Heartbeat CPU 0 instructions: 100000003 cycles: 26463534 heartbeat IPC: 3.79284 cumulative IPC: 3.77878 (Simulation time: 0 hr 2 min 49 sec) 
Heartbeat CPU 0 instructions: 110000001 cycles: 29136232 heartbeat IPC: 3.74154 cumulative IPC: 3.77537 (Simulation time: 0 hr 3 min 6 sec) 
Heartbeat CPU 0 instructions: 120000003 cycles: 31802522 heartbeat IPC: 3.75053 cumulative IPC: 3.77329 (Simulation time: 0 hr 3 min 23 sec) 
Heartbeat CPU 0 instructions: 130000001 cycles: 34414926 heartbeat IPC: 3.82789 cumulative IPC: 3.77743 (Simulation time: 0 hr 3 min 40 sec) 
Heartbeat CPU 0 instructions: 140000000 cycles: 37085787 heartbeat IPC: 3.74411 cumulative IPC: 3.77503 (Simulation time: 0 hr 3 min 57 sec) 
Heartbeat CPU 0 instructions: 150000002 cycles: 39705249 heartbeat IPC: 3.81758 cumulative IPC: 3.77784 (Simulation time: 0 hr 4 min 14 sec) 
Heartbeat CPU 0 instructions: 160000002 cycles: 42317495 heartbeat IPC: 3.82812 cumulative IPC: 3.78094 (Simulation time: 0 hr 4 min 30 sec) 
Heartbeat CPU 0 instructions: 170000003 cycles: 44972041 heartbeat IPC: 3.76712 cumulative IPC: 3.78013 (Simulation time: 0 hr 4 min 47 sec) 
Heartbeat CPU 0 instructions: 180000001 cycles: 47638028 heartbeat IPC: 3.75096 cumulative IPC: 3.77849 (Simulation time: 0 hr 5 min 5 sec) 
Heartbeat CPU 0 instructions: 190000002 cycles: 50244994 heartbeat IPC: 3.83588 cumulative IPC: 3.78147 (Simulation time: 0 hr 5 min 21 sec) 
Heartbeat CPU 0 instructions: 200000001 cycles: 52861508 heartbeat IPC: 3.82188 cumulative IPC: 3.78347 (Simulation time: 0 hr 5 min 38 sec) 

Warmup complete CPU 0 instructions: 200000001 cycles: 52861508 (Simulation time: 0 hr 5 min 38 sec) 

Heartbeat CPU 0 instructions: 210000001 cycles: 59355002 heartbeat IPC: 1.54 cumulative IPC: 1.54 (Simulation time: 0 hr 5 min 53 sec) 
Heartbeat CPU 0 instructions: 220000001 cycles: 65276350 heartbeat IPC: 1.6888 cumulative IPC: 1.61098 (Simulation time: 0 hr 6 min 5 sec) 
Heartbeat CPU 0 instructions: 230000001 cycles: 71566098 heartbeat IPC: 1.58989 cumulative IPC: 1.60388 (Simulation time: 0 hr 6 min 17 sec) 
Heartbeat CPU 0 instructions: 240000002 cycles: 77830080 heartbeat IPC: 1.59643 cumulative IPC: 1.60201 (Simulation time: 0 hr 6 min 30 sec) 
Heartbeat CPU 0 instructions: 250000003 cycles: 83756385 heartbeat IPC: 1.68739 cumulative IPC: 1.61839 (Simulation time: 0 hr 6 min 42 sec) 
Heartbeat CPU 0 instructions: 260000002 cycles: 89685147 heartbeat IPC: 1.68669 cumulative IPC: 1.62939 (Simulation time: 0 hr 6 min 54 sec) 
Heartbeat CPU 0 instructions: 270000002 cycles: 96061047 heartbeat IPC: 1.56841 cumulative IPC: 1.62039 (Simulation time: 0 hr 7 min 7 sec) 
Heartbeat CPU 0 instructions: 280000000 cycles: 102383206 heartbeat IPC: 1.58174 cumulative IPC: 1.61545 (Simulation time: 0 hr 7 min 19 sec) 
Heartbeat CPU 0 instructions: 290000001 cycles: 108305080 heartbeat IPC: 1.68865 cumulative IPC: 1.62327 (Simulation time: 0 hr 7 min 31 sec) 
Heartbeat CPU 0 instructions: 300000003 cycles: 114351718 heartbeat IPC: 1.65381 cumulative IPC: 1.62628 (Simulation time: 0 hr 7 min 45 sec) 
Heartbeat CPU 0 instructions: 310000004 cycles: 120418441 heartbeat IPC: 1.64834 cumulative IPC: 1.62826 (Simulation time: 0 hr 7 min 56 sec) 
Heartbeat CPU 0 instructions: 320000000 cycles: 126441538 heartbeat IPC: 1.66027 cumulative IPC: 1.63088 (Simulation time: 0 hr 8 min 8 sec) 
Heartbeat CPU 0 instructions: 330000000 cycles: 132528502 heartbeat IPC: 1.64286 cumulative IPC: 1.63179 (Simulation time: 0 hr 8 min 20 sec) 
Heartbeat CPU 0 instructions: 340000001 cycles: 138475911 heartbeat IPC: 1.6814 cumulative IPC: 1.63524 (Simulation time: 0 hr 8 min 32 sec) 
Heartbeat CPU 0 instructions: 350000002 cycles: 144425930 heartbeat IPC: 1.68067 cumulative IPC: 1.63819 (Simulation time: 0 hr 8 min 44 sec) 
Heartbeat CPU 0 instructions: 360000001 cycles: 150387585 heartbeat IPC: 1.67739 cumulative IPC: 1.64059 (Simulation time: 0 hr 8 min 56 sec) 
Heartbeat CPU 0 instructions: 370000002 cycles: 156691243 heartbeat IPC: 1.58638 cumulative IPC: 1.6373 (Simulation time: 0 hr 9 min 9 sec) 
Heartbeat CPU 0 instructions: 380000002 cycles: 162759100 heartbeat IPC: 1.64803 cumulative IPC: 1.63789 (Simulation time: 0 hr 9 min 21 sec) 
Heartbeat CPU 0 instructions: 390000003 cycles: 168768651 heartbeat IPC: 1.66402 cumulative IPC: 1.63924 (Simulation time: 0 hr 9 min 34 sec) 
Heartbeat CPU 0 instructions: 400000000 cycles: 174752103 heartbeat IPC: 1.67128 cumulative IPC: 1.64082 (Simulation time: 0 hr 9 min 45 sec) 
Heartbeat CPU 0 instructions: 410000002 cycles: 180871925 heartbeat IPC: 1.63403 cumulative IPC: 1.64049 (Simulation time: 0 hr 9 min 58 sec) 
Heartbeat CPU 0 instructions: 420000003 cycles: 186825406 heartbeat IPC: 1.67969 cumulative IPC: 1.64223 (Simulation time: 0 hr 10 min 9 sec) 
Heartbeat CPU 0 instructions: 430000000 cycles: 193000470 heartbeat IPC: 1.61942 cumulative IPC: 1.64123 (Simulation time: 0 hr 10 min 21 sec) 
Heartbeat CPU 0 instructions: 440000003 cycles: 198989519 heartbeat IPC: 1.66971 cumulative IPC: 1.6424 (Simulation time: 0 hr 10 min 33 sec) 
Heartbeat CPU 0 instructions: 450000001 cycles: 205042486 heartbeat IPC: 1.65208 cumulative IPC: 1.64278 (Simulation time: 0 hr 10 min 47 sec) 
Heartbeat CPU 0 instructions: 460000001 cycles: 210961938 heartbeat IPC: 1.68935 cumulative IPC: 1.64452 (Simulation time: 0 hr 10 min 58 sec) 
Heartbeat CPU 0 instructions: 470000004 cycles: 216913482 heartbeat IPC: 1.68024 cumulative IPC: 1.64582 (Simulation time: 0 hr 11 min 10 sec) 
Heartbeat CPU 0 instructions: 480000002 cycles: 223215777 heartbeat IPC: 1.58672 cumulative IPC: 1.64363 (Simulation time: 0 hr 11 min 22 sec) 
Heartbeat CPU 0 instructions: 490000001 cycles: 229177692 heartbeat IPC: 1.67731 cumulative IPC: 1.64477 (Simulation time: 0 hr 11 min 34 sec) 
Heartbeat CPU 0 instructions: 500000004 cycles: 235387684 heartbeat IPC: 1.61031 cumulative IPC: 1.6436 (Simulation time: 0 hr 11 min 47 sec) 
Heartbeat CPU 0 instructions: 510000003 cycles: 241470916 heartbeat IPC: 1.64386 cumulative IPC: 1.64361 (Simulation time: 0 hr 11 min 59 sec) 
Heartbeat CPU 0 instructions: 520000003 cycles: 247461727 heartbeat IPC: 1.66922 cumulative IPC: 1.6444 (Simulation time: 0 hr 12 min 11 sec) 
Heartbeat CPU 0 instructions: 530000000 cycles: 253507592 heartbeat IPC: 1.65402 cumulative IPC: 1.64469 (Simulation time: 0 hr 12 min 22 sec) 
Heartbeat CPU 0 instructions: 540000003 cycles: 259572868 heartbeat IPC: 1.64873 cumulative IPC: 1.64481 (Simulation time: 0 hr 12 min 34 sec) 
Heartbeat CPU 0 instructions: 550000000 cycles: 265738443 heartbeat IPC: 1.62191 cumulative IPC: 1.64414 (Simulation time: 0 hr 12 min 47 sec) 
Heartbeat CPU 0 instructions: 560000000 cycles: 271814335 heartbeat IPC: 1.64585 cumulative IPC: 1.64419 (Simulation time: 0 hr 12 min 59 sec) 
Heartbeat CPU 0 instructions: 570000003 cycles: 277840250 heartbeat IPC: 1.6595 cumulative IPC: 1.6446 (Simulation time: 0 hr 13 min 11 sec) 
Heartbeat CPU 0 instructions: 580000001 cycles: 284064183 heartbeat IPC: 1.6067 cumulative IPC: 1.64358 (Simulation time: 0 hr 13 min 23 sec) 
Heartbeat CPU 0 instructions: 590000002 cycles: 289990655 heartbeat IPC: 1.68734 cumulative IPC: 1.64467 (Simulation time: 0 hr 13 min 34 sec) 
Heartbeat CPU 0 instructions: 600000002 cycles: 296036082 heartbeat IPC: 1.65414 cumulative IPC: 1.64491 (Simulation time: 0 hr 13 min 48 sec) 
Heartbeat CPU 0 instructions: 610000000 cycles: 301947136 heartbeat IPC: 1.69175 cumulative IPC: 1.64602 (Simulation time: 0 hr 13 min 59 sec) 
Heartbeat CPU 0 instructions: 620000001 cycles: 307946363 heartbeat IPC: 1.66688 cumulative IPC: 1.64651 (Simulation time: 0 hr 14 min 11 sec) 
Heartbeat CPU 0 instructions: 630000001 cycles: 314230148 heartbeat IPC: 1.5914 cumulative IPC: 1.64519 (Simulation time: 0 hr 14 min 24 sec) 
Heartbeat CPU 0 instructions: 640000000 cycles: 320325367 heartbeat IPC: 1.64063 cumulative IPC: 1.64508 (Simulation time: 0 hr 14 min 36 sec) 
Heartbeat CPU 0 instructions: 650000001 cycles: 326342958 heartbeat IPC: 1.66179 cumulative IPC: 1.64545 (Simulation time: 0 hr 14 min 48 sec) 
Heartbeat CPU 0 instructions: 660000000 cycles: 332334393 heartbeat IPC: 1.66905 cumulative IPC: 1.64596 (Simulation time: 0 hr 15 min 0 sec) 
Heartbeat CPU 0 instructions: 670000001 cycles: 338566076 heartbeat IPC: 1.6047 cumulative IPC: 1.64506 (Simulation time: 0 hr 15 min 13 sec) 
Heartbeat CPU 0 instructions: 680000001 cycles: 344686232 heartbeat IPC: 1.63395 cumulative IPC: 1.64482 (Simulation time: 0 hr 15 min 26 sec) 
Heartbeat CPU 0 instructions: 690000004 cycles: 350804158 heartbeat IPC: 1.63454 cumulative IPC: 1.64461 (Simulation time: 0 hr 15 min 38 sec) 
Heartbeat CPU 0 instructions: 700000001 cycles: 356757142 heartbeat IPC: 1.67983 cumulative IPC: 1.6453 (Simulation time: 0 hr 15 min 50 sec) 
Heartbeat CPU 0 instructions: 710000000 cycles: 362799458 heartbeat IPC: 1.65499 cumulative IPC: 1.64549 (Simulation time: 0 hr 16 min 3 sec) 
Heartbeat CPU 0 instructions: 720000003 cycles: 368709899 heartbeat IPC: 1.69192 cumulative IPC: 1.64636 (Simulation time: 0 hr 16 min 15 sec) 
Heartbeat CPU 0 instructions: 730000001 cycles: 374612036 heartbeat IPC: 1.6943 cumulative IPC: 1.64724 (Simulation time: 0 hr 16 min 26 sec) 
Heartbeat CPU 0 instructions: 740000001 cycles: 380821995 heartbeat IPC: 1.61032 cumulative IPC: 1.64654 (Simulation time: 0 hr 16 min 39 sec) 
Heartbeat CPU 0 instructions: 750000002 cycles: 386953892 heartbeat IPC: 1.63082 cumulative IPC: 1.64625 (Simulation time: 0 hr 16 min 51 sec) 
Heartbeat CPU 0 instructions: 760000004 cycles: 393172562 heartbeat IPC: 1.60806 cumulative IPC: 1.64555 (Simulation time: 0 hr 17 min 3 sec) 
Heartbeat CPU 0 instructions: 770000000 cycles: 399254883 heartbeat IPC: 1.64411 cumulative IPC: 1.64553 (Simulation time: 0 hr 17 min 15 sec) 
Heartbeat CPU 0 instructions: 780000002 cycles: 405290618 heartbeat IPC: 1.6568 cumulative IPC: 1.64572 (Simulation time: 0 hr 17 min 27 sec) 
Heartbeat CPU 0 instructions: 790000004 cycles: 411258712 heartbeat IPC: 1.67558 cumulative IPC: 1.64622 (Simulation time: 0 hr 17 min 39 sec) 
Heartbeat CPU 0 instructions: 800000001 cycles: 417253179 heartbeat IPC: 1.6682 cumulative IPC: 1.64658 (Simulation time: 0 hr 17 min 51 sec) 
Heartbeat CPU 0 instructions: 810000000 cycles: 423466431 heartbeat IPC: 1.60946 cumulative IPC: 1.64596 (Simulation time: 0 hr 18 min 3 sec) 
Heartbeat CPU 0 instructions: 820000003 cycles: 429449580 heartbeat IPC: 1.67136 cumulative IPC: 1.64636 (Simulation time: 0 hr 18 min 15 sec) 
Heartbeat CPU 0 instructions: 830000001 cycles: 435465072 heartbeat IPC: 1.66237 cumulative IPC: 1.64661 (Simulation time: 0 hr 18 min 27 sec) 
Heartbeat CPU 0 instructions: 840000000 cycles: 441655960 heartbeat IPC: 1.61528 cumulative IPC: 1.64611 (Simulation time: 0 hr 18 min 39 sec) 
Heartbeat CPU 0 instructions: 850000004 cycles: 447640901 heartbeat IPC: 1.67086 cumulative IPC: 1.64649 (Simulation time: 0 hr 18 min 51 sec) 
Heartbeat CPU 0 instructions: 860000000 cycles: 453558077 heartbeat IPC: 1.68999 cumulative IPC: 1.64713 (Simulation time: 0 hr 19 min 2 sec) 
Heartbeat CPU 0 instructions: 870000004 cycles: 459683357 heartbeat IPC: 1.63258 cumulative IPC: 1.64691 (Simulation time: 0 hr 19 min 17 sec) 
Heartbeat CPU 0 instructions: 880000000 cycles: 466215043 heartbeat IPC: 1.531 cumulative IPC: 1.64508 (Simulation time: 0 hr 19 min 29 sec) 
Heartbeat CPU 0 instructions: 890000002 cycles: 472573770 heartbeat IPC: 1.57264 cumulative IPC: 1.64398 (Simulation time: 0 hr 19 min 42 sec) 
Heartbeat CPU 0 instructions: 900000001 cycles: 478954972 heartbeat IPC: 1.5671 cumulative IPC: 1.64283 (Simulation time: 0 hr 19 min 56 sec) 
Heartbeat CPU 0 instructions: 910000003 cycles: 484934234 heartbeat IPC: 1.67245 cumulative IPC: 1.64324 (Simulation time: 0 hr 20 min 8 sec) 
Heartbeat CPU 0 instructions: 920000004 cycles: 490981822 heartbeat IPC: 1.65355 cumulative IPC: 1.64338 (Simulation time: 0 hr 20 min 20 sec) 
Heartbeat CPU 0 instructions: 930000001 cycles: 497180509 heartbeat IPC: 1.61324 cumulative IPC: 1.64296 (Simulation time: 0 hr 20 min 35 sec) 
Heartbeat CPU 0 instructions: 940000000 cycles: 503545221 heartbeat IPC: 1.57116 cumulative IPC: 1.64195 (Simulation time: 0 hr 20 min 47 sec) 
Heartbeat CPU 0 instructions: 950000000 cycles: 509602057 heartbeat IPC: 1.65103 cumulative IPC: 1.64207 (Simulation time: 0 hr 20 min 59 sec) 
Heartbeat CPU 0 instructions: 960000001 cycles: 515843060 heartbeat IPC: 1.60231 cumulative IPC: 1.64153 (Simulation time: 0 hr 23 min 5 sec) 
Heartbeat CPU 0 instructions: 970000002 cycles: 521875252 heartbeat IPC: 1.65777 cumulative IPC: 1.64174 (Simulation time: 0 hr 23 min 17 sec) 
Heartbeat CPU 0 instructions: 980000000 cycles: 528274353 heartbeat IPC: 1.56272 cumulative IPC: 1.64068 (Simulation time: 0 hr 23 min 30 sec) 
Heartbeat CPU 0 instructions: 990000000 cycles: 534356083 heartbeat IPC: 1.64427 cumulative IPC: 1.64072 (Simulation time: 0 hr 23 min 44 sec) 
*** Reached end of trace: Traces/bwaves_98B.trace.xz
Heartbeat CPU 0 instructions: 1000000002 cycles: 540270959 heartbeat IPC: 1.69065 cumulative IPC: 1.64133 (Simulation time: 0 hr 23 min 56 sec) 
Heartbeat CPU 0 instructions: 1010000002 cycles: 546310182 heartbeat IPC: 1.65584 cumulative IPC: 1.64151 (Simulation time: 0 hr 24 min 8 sec) 
Heartbeat CPU 0 instructions: 1020000001 cycles: 552455422 heartbeat IPC: 1.62728 cumulative IPC: 1.64133 (Simulation time: 0 hr 24 min 21 sec) 
Heartbeat CPU 0 instructions: 1030000001 cycles: 558799461 heartbeat IPC: 1.57628 cumulative IPC: 1.64052 (Simulation time: 0 hr 24 min 34 sec) 
Heartbeat CPU 0 instructions: 1040000004 cycles: 565060257 heartbeat IPC: 1.59724 cumulative IPC: 1.63999 (Simulation time: 0 hr 24 min 46 sec) 
Heartbeat CPU 0 instructions: 1050000000 cycles: 571065043 heartbeat IPC: 1.66534 cumulative IPC: 1.64028 (Simulation time: 0 hr 25 min 0 sec) 
Heartbeat CPU 0 instructions: 1060000000 cycles: 577154707 heartbeat IPC: 1.64213 cumulative IPC: 1.6403 (Simulation time: 0 hr 25 min 12 sec) 
Heartbeat CPU 0 instructions: 1070000001 cycles: 583280097 heartbeat IPC: 1.63255 cumulative IPC: 1.64021 (Simulation time: 0 hr 25 min 25 sec) 
Heartbeat CPU 0 instructions: 1080000001 cycles: 589676510 heartbeat IPC: 1.56338 cumulative IPC: 1.6393 (Simulation time: 0 hr 25 min 38 sec) 
Heartbeat CPU 0 instructions: 1090000001 cycles: 595785942 heartbeat IPC: 1.63681 cumulative IPC: 1.63927 (Simulation time: 0 hr 25 min 50 sec) 
Heartbeat CPU 0 instructions: 1100000000 cycles: 602018999 heartbeat IPC: 1.60435 cumulative IPC: 1.63887 (Simulation time: 0 hr 26 min 3 sec) 
Heartbeat CPU 0 instructions: 1110000001 cycles: 607957782 heartbeat IPC: 1.68385 cumulative IPC: 1.63936 (Simulation time: 0 hr 26 min 15 sec) 
Heartbeat CPU 0 instructions: 1120000004 cycles: 613966005 heartbeat IPC: 1.66439 cumulative IPC: 1.63962 (Simulation time: 0 hr 26 min 28 sec) 
Heartbeat CPU 0 instructions: 1130000001 cycles: 620455663 heartbeat IPC: 1.54091 cumulative IPC: 1.63849 (Simulation time: 0 hr 26 min 42 sec) 
Heartbeat CPU 0 instructions: 1140000000 cycles: 626420875 heartbeat IPC: 1.67639 cumulative IPC: 1.63889 (Simulation time: 0 hr 26 min 53 sec) 
Heartbeat CPU 0 instructions: 1150000000 cycles: 632832332 heartbeat IPC: 1.55971 cumulative IPC: 1.63801 (Simulation time: 0 hr 27 min 7 sec) 
Heartbeat CPU 0 instructions: 1160000000 cycles: 639330780 heartbeat IPC: 1.53883 cumulative IPC: 1.63691 (Simulation time: 0 hr 27 min 20 sec) 
Heartbeat CPU 0 instructions: 1170000002 cycles: 645440693 heartbeat IPC: 1.63668 cumulative IPC: 1.63691 (Simulation time: 0 hr 27 min 32 sec) 
Heartbeat CPU 0 instructions: 1180000000 cycles: 651464561 heartbeat IPC: 1.66006 cumulative IPC: 1.63715 (Simulation time: 0 hr 27 min 45 sec) 
Heartbeat CPU 0 instructions: 1190000001 cycles: 658057692 heartbeat IPC: 1.51673 cumulative IPC: 1.63583 (Simulation time: 0 hr 27 min 59 sec) 
Heartbeat CPU 0 instructions: 1200000004 cycles: 664488381 heartbeat IPC: 1.55504 cumulative IPC: 1.63498 (Simulation time: 0 hr 28 min 13 sec) 
Finished CPU 0 instructions: 1000000003 cycles: 611626873 cumulative IPC: 1.63498 (Simulation time: 0 hr 28 min 13 sec) 

ChampSim completed all CPUs

Region of Interest Statistics

CPU 0 cumulative IPC: 1.63498 instructions: 1000000003 cycles: 611626873
cpu0_DTLB TOTAL     ACCESS:  144005955  HIT:  144000780  MISS:       5175
cpu0_DTLB LOAD      ACCESS:  121444005  HIT:  121443306  MISS:        699
cpu0_DTLB RFO       ACCESS:   22561950  HIT:   22557474  MISS:       4476
cpu0_DTLB PREFETCH  ACCESS:          0  HIT:          0  MISS:          0
cpu0_DTLB WRITEBACK ACCESS:          0  HIT:          0  MISS:          0
cpu0_DTLB TRANSLATION ACCESS:          0  HIT:          0  MISS:          0
cpu0_DTLB PREFETCH  REQUESTED:          0  ISSUED:          0  USEFUL:          0  USELESS:          0
cpu0_DTLB AVERAGE MISS LATENCY: 148.188 cycles
cpu0_ITLB TOTAL     ACCESS:  116930241  HIT:  116930241  MISS:          0
cpu0_ITLB LOAD      ACCESS:  116930241  HIT:  116930241  MISS:          0
cpu0_ITLB RFO       ACCESS:          0  HIT:          0  MISS:          0
cpu0_ITLB PREFETCH  ACCESS:          0  HIT:          0  MISS:          0
cpu0_ITLB WRITEBACK ACCESS:          0  HIT:          0  MISS:          0
cpu0_ITLB TRANSLATION ACCESS:          0  HIT:          0  MISS:          0
cpu0_ITLB PREFETCH  REQUESTED:          0  ISSUED:          0  USEFUL:          0  USELESS:          0
cpu0_ITLB AVERAGE MISS LATENCY: nan cycles
cpu0_L1I TOTAL     ACCESS:    9977459  HIT:    9977454  MISS:          5
cpu0_L1I LOAD      ACCESS:    9977459  HIT:    9977454  MISS:          5
cpu0_L1I RFO       ACCESS:          0  HIT:          0  MISS:          0
cpu0_L1I PREFETCH  ACCESS:          0  HIT:          0  MISS:          0
cpu0_L1I WRITEBACK ACCESS:          0  HIT:          0  MISS:          0
cpu0_L1I TRANSLATION ACCESS:          0  HIT:          0  MISS:          0
cpu0_L1I PREFETCH  REQUESTED:          0  ISSUED:          0  USEFUL:          0  USELESS:          0
cpu0_L1I AVERAGE MISS LATENCY: 217.8 cycles
cpu0_STLB TOTAL     ACCESS:       5175  HIT:        261  MISS:       4914
cpu0_STLB LOAD      ACCESS:        699  HIT:        247  MISS:        452
cpu0_STLB RFO       ACCESS:       4476  HIT:         14  MISS:       4462
cpu0_STLB PREFETCH  ACCESS:          0  HIT:          0  MISS:          0
cpu0_STLB WRITEBACK ACCESS:          0  HIT:          0  MISS:          0
cpu0_STLB TRANSLATION ACCESS:          0  HIT:          0  MISS:          0
cpu0_STLB PREFETCH  REQUESTED:          0  ISSUED:          0  USEFUL:          0  USELESS:          0
cpu0_STLB AVERAGE MISS LATENCY: 146.58 cycles
cpu0_L1D TOTAL     ACCESS:  167719617  HIT:  167395445  MISS:     324172
cpu0_L1D LOAD      ACCESS:  128421343  HIT:  128386168  MISS:      35175
cpu0_L1D RFO       ACCESS:   39293360  HIT:   39004803  MISS:     288557
cpu0_L1D PREFETCH  ACCESS:          0  HIT:          0  MISS:          0
cpu0_L1D WRITEBACK ACCESS:          0  HIT:          0  MISS:          0
cpu0_L1D TRANSLATION ACCESS:       4914  HIT:       4474  MISS:        440
cpu0_L1D PREFETCH  REQUESTED:          0  ISSUED:          0  USEFUL:          0  USELESS:          0
cpu0_L1D AVERAGE MISS LATENCY: 310.226 cycles
cpu0_L2C TOTAL     ACCESS:     612753  HIT:     294350  MISS:     318403
cpu0_L2C LOAD      ACCESS:      35180  HIT:       3641  MISS:      31539
cpu0_L2C RFO       ACCESS:     288557  HIT:       2550  MISS:     286007
cpu0_L2C PREFETCH  ACCESS:          0  HIT:          0  MISS:          0
cpu0_L2C WRITEBACK ACCESS:     288576  HIT:     287724  MISS:        852
cpu0_L2C TRANSLATION ACCESS:        440  HIT:        435  MISS:          5
cpu0_L2C PREFETCH  REQUESTED:          0  ISSUED:          0  USEFUL:          0  USELESS:          0
cpu0_L2C AVERAGE MISS LATENCY: 304.632 cycles
LLC TOTAL     ACCESS:     604193  HIT:      54534  MISS:     549659
LLC LOAD      ACCESS:      31539  HIT:       1811  MISS:      29728
LLC RFO       ACCESS:     286007  HIT:      17261  MISS:     268746
LLC PREFETCH  ACCESS:          0  HIT:          0  MISS:          0
LLC WRITEBACK ACCESS:     286642  HIT:      35459  MISS:     251183
LLC TRANSLATION ACCESS:          5  HIT:          3  MISS:          2
LLC PREFETCH  REQUESTED:          0  ISSUED:          0  USEFUL:          0  USELESS:          0
LLC AVERAGE MISS LATENCY: 164.333 cycles

DRAM Statistics
 CHANNEL 0
 RQ ROW_BUFFER_HIT:       1860  ROW_BUFFER_MISS:     296615
 DBUS AVG_CONGESTED_CYCLE:    3.95644
 WQ ROW_BUFFER_HIT:      23968  ROW_BUFFER_MISS:     254709  FULL:          0


CPU 0 Branch Prediction Accuracy: 80.5479% MPKI: 27.9417 Average ROB Occupancy at Mispredict: 47.4712
Branch type MPKI
BRANCH_DIRECT_JUMP: 5e-06
BRANCH_INDIRECT: 1e-06
BRANCH_CONDITIONAL: 27.9417
BRANCH_DIRECT_CALL: 0
BRANCH_INDIRECT_CALL: 0
BRANCH_RETURN: 3e-06

