
*** ChampSim Multicore Out-of-Order Simulator ***

Warmup Instructions: 200000000
Simulation Instructions: 1000000000arch
Number of CPUs: 1
Off-chip DRAM Size: 4 GiB Channels: 1 Width: 64-bit Data Rate: 3200 MT/s

VirtualMemory physical capacity: 8588881920 num_ppages: 2096895
VirtualMemory page size: 4096 log2_page_size: 12

CPU 0 runs Traces/astar_23B.trace.xz
CPU 0 Bimodal branch predictor
Basic BTB sets: 1024 ways: 8 indirect buffer size: 4096 RAS size: 64
Initialize arch replacement policy state
Finished initializing arch replacement policy state
Heartbeat CPU 0 instructions: 10000002 cycles: 2670768 heartbeat IPC: 3.74424 cumulative IPC: 3.74424 (Simulation time: 0 hr 0 min 22 sec) 
Heartbeat CPU 0 instructions: 20000003 cycles: 5350553 heartbeat IPC: 3.73164 cumulative IPC: 3.73793 (Simulation time: 0 hr 0 min 44 sec) 
Heartbeat CPU 0 instructions: 30000001 cycles: 8019801 heartbeat IPC: 3.74637 cumulative IPC: 3.74074 (Simulation time: 0 hr 1 min 6 sec) 
Heartbeat CPU 0 instructions: 40000002 cycles: 10676674 heartbeat IPC: 3.76382 cumulative IPC: 3.74649 (Simulation time: 0 hr 1 min 28 sec) 
Heartbeat CPU 0 instructions: 50000004 cycles: 13374189 heartbeat IPC: 3.70712 cumulative IPC: 3.73854 (Simulation time: 0 hr 1 min 50 sec) 
Heartbeat CPU 0 instructions: 60000003 cycles: 16094009 heartbeat IPC: 3.67671 cumulative IPC: 3.7281 (Simulation time: 0 hr 2 min 13 sec) 
Heartbeat CPU 0 instructions: 70000003 cycles: 18760598 heartbeat IPC: 3.75011 cumulative IPC: 3.73122 (Simulation time: 0 hr 2 min 35 sec) 
Heartbeat CPU 0 instructions: 80000001 cycles: 21441019 heartbeat IPC: 3.73076 cumulative IPC: 3.73117 (Simulation time: 0 hr 2 min 57 sec) 
Heartbeat CPU 0 instructions: 90000003 cycles: 24140151 heartbeat IPC: 3.7049 cumulative IPC: 3.72823 (Simulation time: 0 hr 3 min 19 sec) 
Heartbeat CPU 0 instructions: 100000003 cycles: 26802697 heartbeat IPC: 3.7558 cumulative IPC: 3.73097 (Simulation time: 0 hr 3 min 41 sec) 
Heartbeat CPU 0 instructions: 110000001 cycles: 29478377 heartbeat IPC: 3.73737 cumulative IPC: 3.73155 (Simulation time: 0 hr 4 min 3 sec) 
Heartbeat CPU 0 instructions: 120000002 cycles: 32139581 heartbeat IPC: 3.7577 cumulative IPC: 3.73371 (Simulation time: 0 hr 4 min 24 sec) 
Heartbeat CPU 0 instructions: 130000004 cycles: 34830932 heartbeat IPC: 3.71561 cumulative IPC: 3.73231 (Simulation time: 0 hr 4 min 47 sec) 
Heartbeat CPU 0 instructions: 140000000 cycles: 37504142 heartbeat IPC: 3.74082 cumulative IPC: 3.73292 (Simulation time: 0 hr 5 min 9 sec) 
Heartbeat CPU 0 instructions: 150000000 cycles: 40174739 heartbeat IPC: 3.74448 cumulative IPC: 3.73369 (Simulation time: 0 hr 5 min 30 sec) 
Heartbeat CPU 0 instructions: 160000002 cycles: 42838447 heartbeat IPC: 3.75417 cumulative IPC: 3.73496 (Simulation time: 0 hr 5 min 52 sec) 
Heartbeat CPU 0 instructions: 170000002 cycles: 45537469 heartbeat IPC: 3.70505 cumulative IPC: 3.73319 (Simulation time: 0 hr 6 min 15 sec) 
Heartbeat CPU 0 instructions: 180000001 cycles: 48202324 heartbeat IPC: 3.75255 cumulative IPC: 3.73426 (Simulation time: 0 hr 6 min 36 sec) 
Heartbeat CPU 0 instructions: 190000000 cycles: 50882421 heartbeat IPC: 3.73121 cumulative IPC: 3.7341 (Simulation time: 0 hr 6 min 59 sec) 
Heartbeat CPU 0 instructions: 200000001 cycles: 53532846 heartbeat IPC: 3.77298 cumulative IPC: 3.73602 (Simulation time: 0 hr 7 min 20 sec) 

Warmup complete CPU 0 instructions: 200000001 cycles: 53532846 (Simulation time: 0 hr 7 min 20 sec) 

Heartbeat CPU 0 instructions: 210000003 cycles: 85821314 heartbeat IPC: 0.309708 cumulative IPC: 0.309708 (Simulation time: 0 hr 7 min 40 sec) 
Heartbeat CPU 0 instructions: 220000004 cycles: 117030392 heartbeat IPC: 0.32042 cumulative IPC: 0.314973 (Simulation time: 0 hr 7 min 59 sec) 
Heartbeat CPU 0 instructions: 230000004 cycles: 146794245 heartbeat IPC: 0.335978 cumulative IPC: 0.321677 (Simulation time: 0 hr 8 min 18 sec) 
Heartbeat CPU 0 instructions: 240000001 cycles: 175464541 heartbeat IPC: 0.348793 cumulative IPC: 0.328053 (Simulation time: 0 hr 8 min 36 sec) 
Heartbeat CPU 0 instructions: 250000001 cycles: 203837766 heartbeat IPC: 0.352445 cumulative IPC: 0.332657 (Simulation time: 0 hr 8 min 54 sec) 
Heartbeat CPU 0 instructions: 260000001 cycles: 237297867 heartbeat IPC: 0.298863 cumulative IPC: 0.326504 (Simulation time: 0 hr 9 min 14 sec) 
Heartbeat CPU 0 instructions: 270000001 cycles: 269117042 heartbeat IPC: 0.314276 cumulative IPC: 0.324699 (Simulation time: 0 hr 9 min 33 sec) 
Heartbeat CPU 0 instructions: 280000003 cycles: 300269124 heartbeat IPC: 0.321006 cumulative IPC: 0.324233 (Simulation time: 0 hr 9 min 52 sec) 
Heartbeat CPU 0 instructions: 290000003 cycles: 329654730 heartbeat IPC: 0.340303 cumulative IPC: 0.325943 (Simulation time: 0 hr 10 min 10 sec) 
Heartbeat CPU 0 instructions: 300000000 cycles: 358357407 heartbeat IPC: 0.348399 cumulative IPC: 0.328058 (Simulation time: 0 hr 10 min 29 sec) 
Heartbeat CPU 0 instructions: 310000000 cycles: 386073239 heartbeat IPC: 0.360805 cumulative IPC: 0.330787 (Simulation time: 0 hr 10 min 46 sec) 
Heartbeat CPU 0 instructions: 320000000 cycles: 414488386 heartbeat IPC: 0.351925 cumulative IPC: 0.332451 (Simulation time: 0 hr 11 min 4 sec) 
Heartbeat CPU 0 instructions: 330000000 cycles: 452982034 heartbeat IPC: 0.259783 cumulative IPC: 0.325448 (Simulation time: 0 hr 11 min 26 sec) 
Heartbeat CPU 0 instructions: 340000000 cycles: 481284441 heartbeat IPC: 0.353327 cumulative IPC: 0.327293 (Simulation time: 0 hr 11 min 44 sec) 
Heartbeat CPU 0 instructions: 350000000 cycles: 508351736 heartbeat IPC: 0.36945 cumulative IPC: 0.329802 (Simulation time: 0 hr 12 min 2 sec) 
Heartbeat CPU 0 instructions: 360000000 cycles: 539609101 heartbeat IPC: 0.319925 cumulative IPC: 0.329166 (Simulation time: 0 hr 12 min 21 sec) 
Heartbeat CPU 0 instructions: 370000003 cycles: 568633296 heartbeat IPC: 0.34454 cumulative IPC: 0.330033 (Simulation time: 0 hr 12 min 39 sec) 
Heartbeat CPU 0 instructions: 380000004 cycles: 599896948 heartbeat IPC: 0.31986 cumulative IPC: 0.329451 (Simulation time: 0 hr 12 min 59 sec) 
Heartbeat CPU 0 instructions: 390000000 cycles: 637908767 heartbeat IPC: 0.263076 cumulative IPC: 0.325133 (Simulation time: 0 hr 13 min 21 sec) 
Heartbeat CPU 0 instructions: 400000000 cycles: 670958256 heartbeat IPC: 0.302577 cumulative IPC: 0.323926 (Simulation time: 0 hr 13 min 41 sec) 
Heartbeat CPU 0 instructions: 410000000 cycles: 699083061 heartbeat IPC: 0.355558 cumulative IPC: 0.325304 (Simulation time: 0 hr 13 min 59 sec) 
Heartbeat CPU 0 instructions: 420000000 cycles: 728253871 heartbeat IPC: 0.342808 cumulative IPC: 0.326061 (Simulation time: 0 hr 14 min 17 sec) 
Heartbeat CPU 0 instructions: 430000000 cycles: 756655981 heartbeat IPC: 0.352087 cumulative IPC: 0.327112 (Simulation time: 0 hr 14 min 34 sec) 
Heartbeat CPU 0 instructions: 440000004 cycles: 784472473 heartbeat IPC: 0.359499 cumulative IPC: 0.328344 (Simulation time: 0 hr 14 min 52 sec) 
Heartbeat CPU 0 instructions: 450000000 cycles: 815264187 heartbeat IPC: 0.324763 cumulative IPC: 0.3282 (Simulation time: 0 hr 15 min 11 sec) 
Heartbeat CPU 0 instructions: 460000001 cycles: 845497275 heartbeat IPC: 0.330763 cumulative IPC: 0.328298 (Simulation time: 0 hr 15 min 30 sec) 
Heartbeat CPU 0 instructions: 470000002 cycles: 875541176 heartbeat IPC: 0.332846 cumulative IPC: 0.328464 (Simulation time: 0 hr 15 min 48 sec) 
Heartbeat CPU 0 instructions: 480000001 cycles: 909697026 heartbeat IPC: 0.292776 cumulative IPC: 0.32704 (Simulation time: 0 hr 16 min 9 sec) 
Heartbeat CPU 0 instructions: 490000004 cycles: 943842286 heartbeat IPC: 0.292866 cumulative IPC: 0.325729 (Simulation time: 0 hr 16 min 30 sec) 
Heartbeat CPU 0 instructions: 500000000 cycles: 977663227 heartbeat IPC: 0.295675 cumulative IPC: 0.32463 (Simulation time: 0 hr 16 min 50 sec) 
Heartbeat CPU 0 instructions: 510000000 cycles: 1010618071 heartbeat IPC: 0.303446 cumulative IPC: 0.3239 (Simulation time: 0 hr 17 min 9 sec) 
Heartbeat CPU 0 instructions: 520000000 cycles: 1036825514 heartbeat IPC: 0.381571 cumulative IPC: 0.325437 (Simulation time: 0 hr 17 min 27 sec) 
Heartbeat CPU 0 instructions: 530000001 cycles: 1069665320 heartbeat IPC: 0.304509 cumulative IPC: 0.324761 (Simulation time: 0 hr 17 min 47 sec) 
Heartbeat CPU 0 instructions: 540000000 cycles: 1099317946 heartbeat IPC: 0.337238 cumulative IPC: 0.325115 (Simulation time: 0 hr 18 min 5 sec) 
Heartbeat CPU 0 instructions: 550000000 cycles: 1126298301 heartbeat IPC: 0.37064 cumulative IPC: 0.32626 (Simulation time: 0 hr 18 min 23 sec) 
Heartbeat CPU 0 instructions: 560000002 cycles: 1149586404 heartbeat IPC: 0.429404 cumulative IPC: 0.328451 (Simulation time: 0 hr 18 min 39 sec) 
Heartbeat CPU 0 instructions: 570000002 cycles: 1179620165 heartbeat IPC: 0.332959 cumulative IPC: 0.328571 (Simulation time: 0 hr 18 min 58 sec) 
Heartbeat CPU 0 instructions: 580000002 cycles: 1213601512 heartbeat IPC: 0.294279 cumulative IPC: 0.327567 (Simulation time: 0 hr 19 min 18 sec) 
Heartbeat CPU 0 instructions: 590000000 cycles: 1245994470 heartbeat IPC: 0.308709 cumulative IPC: 0.327055 (Simulation time: 0 hr 19 min 38 sec) 
Heartbeat CPU 0 instructions: 600000000 cycles: 1275887207 heartbeat IPC: 0.334529 cumulative IPC: 0.327237 (Simulation time: 0 hr 19 min 57 sec) 
Heartbeat CPU 0 instructions: 610000000 cycles: 1306744746 heartbeat IPC: 0.32407 cumulative IPC: 0.327159 (Simulation time: 0 hr 20 min 16 sec) 
Heartbeat CPU 0 instructions: 620000003 cycles: 1337124924 heartbeat IPC: 0.329162 cumulative IPC: 0.327207 (Simulation time: 0 hr 20 min 34 sec) 
Heartbeat CPU 0 instructions: 630000000 cycles: 1370557437 heartbeat IPC: 0.29911 cumulative IPC: 0.326494 (Simulation time: 0 hr 20 min 55 sec) 
Heartbeat CPU 0 instructions: 640000000 cycles: 1403822842 heartbeat IPC: 0.300613 cumulative IPC: 0.325856 (Simulation time: 0 hr 21 min 15 sec) 
Heartbeat CPU 0 instructions: 650000000 cycles: 1431013776 heartbeat IPC: 0.36777 cumulative IPC: 0.326683 (Simulation time: 0 hr 21 min 32 sec) 
Heartbeat CPU 0 instructions: 660000000 cycles: 1461163500 heartbeat IPC: 0.331678 cumulative IPC: 0.32679 (Simulation time: 0 hr 21 min 50 sec) 
Heartbeat CPU 0 instructions: 670000002 cycles: 1496268893 heartbeat IPC: 0.284857 cumulative IPC: 0.32577 (Simulation time: 0 hr 22 min 11 sec) 
Heartbeat CPU 0 instructions: 680000001 cycles: 1533413495 heartbeat IPC: 0.269218 cumulative IPC: 0.32435 (Simulation time: 0 hr 22 min 33 sec) 
Heartbeat CPU 0 instructions: 690000000 cycles: 1569858827 heartbeat IPC: 0.274384 cumulative IPC: 0.32315 (Simulation time: 0 hr 22 min 55 sec) 
Heartbeat CPU 0 instructions: 700000000 cycles: 1611849738 heartbeat IPC: 0.238147 cumulative IPC: 0.320859 (Simulation time: 0 hr 23 min 19 sec) 
Heartbeat CPU 0 instructions: 710000004 cycles: 1644063428 heartbeat IPC: 0.310427 cumulative IPC: 0.320648 (Simulation time: 0 hr 23 min 39 sec) 
Heartbeat CPU 0 instructions: 720000002 cycles: 1676626809 heartbeat IPC: 0.307093 cumulative IPC: 0.320376 (Simulation time: 0 hr 23 min 59 sec) 
Heartbeat CPU 0 instructions: 730000004 cycles: 1705317933 heartbeat IPC: 0.34854 cumulative IPC: 0.320865 (Simulation time: 0 hr 24 min 18 sec) 
Heartbeat CPU 0 instructions: 740000002 cycles: 1739562071 heartbeat IPC: 0.292021 cumulative IPC: 0.320279 (Simulation time: 0 hr 24 min 38 sec) 
Heartbeat CPU 0 instructions: 750000004 cycles: 1771866356 heartbeat IPC: 0.309557 cumulative IPC: 0.320078 (Simulation time: 0 hr 24 min 57 sec) 
Heartbeat CPU 0 instructions: 760000004 cycles: 1807490392 heartbeat IPC: 0.280709 cumulative IPC: 0.319278 (Simulation time: 0 hr 25 min 19 sec) 
Heartbeat CPU 0 instructions: 770000000 cycles: 1843693999 heartbeat IPC: 0.276215 cumulative IPC: 0.318407 (Simulation time: 0 hr 25 min 40 sec) 
Heartbeat CPU 0 instructions: 780000003 cycles: 1876612700 heartbeat IPC: 0.303779 cumulative IPC: 0.318143 (Simulation time: 0 hr 26 min 0 sec) 
Heartbeat CPU 0 instructions: 790000002 cycles: 1906124574 heartbeat IPC: 0.338847 cumulative IPC: 0.318473 (Simulation time: 0 hr 26 min 19 sec) 
Heartbeat CPU 0 instructions: 800000001 cycles: 1936655483 heartbeat IPC: 0.327537 cumulative IPC: 0.31862 (Simulation time: 0 hr 26 min 37 sec) 
Heartbeat CPU 0 instructions: 810000000 cycles: 1966491053 heartbeat IPC: 0.33517 cumulative IPC: 0.318878 (Simulation time: 0 hr 26 min 56 sec) 
Heartbeat CPU 0 instructions: 820000004 cycles: 1998851116 heartbeat IPC: 0.309023 cumulative IPC: 0.318714 (Simulation time: 0 hr 27 min 15 sec) 
Heartbeat CPU 0 instructions: 830000000 cycles: 2027718854 heartbeat IPC: 0.346407 cumulative IPC: 0.319119 (Simulation time: 0 hr 27 min 33 sec) 
Heartbeat CPU 0 instructions: 840000000 cycles: 2056658220 heartbeat IPC: 0.34555 cumulative IPC: 0.319501 (Simulation time: 0 hr 27 min 51 sec) 
Heartbeat CPU 0 instructions: 850000000 cycles: 2091729498 heartbeat IPC: 0.285134 cumulative IPC: 0.318909 (Simulation time: 0 hr 28 min 12 sec) 
Heartbeat CPU 0 instructions: 860000004 cycles: 2125454603 heartbeat IPC: 0.296515 cumulative IPC: 0.318545 (Simulation time: 0 hr 28 min 32 sec) 
Heartbeat CPU 0 instructions: 870000003 cycles: 2156920715 heartbeat IPC: 0.317802 cumulative IPC: 0.318534 (Simulation time: 0 hr 28 min 51 sec) 
Heartbeat CPU 0 instructions: 880000000 cycles: 2186447864 heartbeat IPC: 0.338671 cumulative IPC: 0.318813 (Simulation time: 0 hr 29 min 9 sec) 
Heartbeat CPU 0 instructions: 890000000 cycles: 2214703287 heartbeat IPC: 0.353914 cumulative IPC: 0.319271 (Simulation time: 0 hr 29 min 27 sec) 
Heartbeat CPU 0 instructions: 900000003 cycles: 2245305388 heartbeat IPC: 0.326775 cumulative IPC: 0.319376 (Simulation time: 0 hr 29 min 46 sec) 
Heartbeat CPU 0 instructions: 910000002 cycles: 2282383998 heartbeat IPC: 0.269697 cumulative IPC: 0.31855 (Simulation time: 0 hr 30 min 8 sec) 
Heartbeat CPU 0 instructions: 920000000 cycles: 2312564387 heartbeat IPC: 0.331341 cumulative IPC: 0.318721 (Simulation time: 0 hr 30 min 26 sec) 
Heartbeat CPU 0 instructions: 930000000 cycles: 2347801965 heartbeat IPC: 0.283788 cumulative IPC: 0.318184 (Simulation time: 0 hr 30 min 48 sec) 
Heartbeat CPU 0 instructions: 940000001 cycles: 2380972991 heartbeat IPC: 0.301468 cumulative IPC: 0.317946 (Simulation time: 0 hr 31 min 8 sec) 
Heartbeat CPU 0 instructions: 950000003 cycles: 2413111776 heartbeat IPC: 0.311151 cumulative IPC: 0.317853 (Simulation time: 0 hr 31 min 28 sec) 
Heartbeat CPU 0 instructions: 960000000 cycles: 2450428910 heartbeat IPC: 0.267973 cumulative IPC: 0.317077 (Simulation time: 0 hr 31 min 50 sec) 
Heartbeat CPU 0 instructions: 970000000 cycles: 2483590910 heartbeat IPC: 0.30155 cumulative IPC: 0.316865 (Simulation time: 0 hr 32 min 10 sec) 
Heartbeat CPU 0 instructions: 980000003 cycles: 2518398080 heartbeat IPC: 0.287297 cumulative IPC: 0.316447 (Simulation time: 0 hr 32 min 31 sec) 
Heartbeat CPU 0 instructions: 990000002 cycles: 2554904342 heartbeat IPC: 0.273926 cumulative IPC: 0.315827 (Simulation time: 0 hr 32 min 52 sec) 
*** Reached end of trace: Traces/astar_23B.trace.xz
Heartbeat CPU 0 instructions: 1000000002 cycles: 2583313131 heartbeat IPC: 0.352004 cumulative IPC: 0.316233 (Simulation time: 0 hr 33 min 10 sec) 
Heartbeat CPU 0 instructions: 1010000000 cycles: 2615728898 heartbeat IPC: 0.308492 cumulative IPC: 0.316135 (Simulation time: 0 hr 33 min 30 sec) 
Heartbeat CPU 0 instructions: 1020000003 cycles: 2644011161 heartbeat IPC: 0.353579 cumulative IPC: 0.316544 (Simulation time: 0 hr 33 min 47 sec) 
Heartbeat CPU 0 instructions: 1030000000 cycles: 2677651953 heartbeat IPC: 0.297258 cumulative IPC: 0.316297 (Simulation time: 0 hr 34 min 7 sec) 
Heartbeat CPU 0 instructions: 1040000002 cycles: 2713926007 heartbeat IPC: 0.275679 cumulative IPC: 0.315743 (Simulation time: 0 hr 34 min 29 sec) 
Heartbeat CPU 0 instructions: 1050000002 cycles: 2747066416 heartbeat IPC: 0.301746 cumulative IPC: 0.315571 (Simulation time: 0 hr 34 min 49 sec) 
Heartbeat CPU 0 instructions: 1060000000 cycles: 2779523671 heartbeat IPC: 0.308097 cumulative IPC: 0.315482 (Simulation time: 0 hr 35 min 8 sec) 
Heartbeat CPU 0 instructions: 1070000000 cycles: 2807444719 heartbeat IPC: 0.358153 cumulative IPC: 0.315914 (Simulation time: 0 hr 35 min 26 sec) 
Heartbeat CPU 0 instructions: 1080000000 cycles: 2841624177 heartbeat IPC: 0.292573 cumulative IPC: 0.315628 (Simulation time: 0 hr 35 min 47 sec) 
Heartbeat CPU 0 instructions: 1090000004 cycles: 2874911851 heartbeat IPC: 0.300412 cumulative IPC: 0.315449 (Simulation time: 0 hr 36 min 7 sec) 
Heartbeat CPU 0 instructions: 1100000002 cycles: 2906135338 heartbeat IPC: 0.320272 cumulative IPC: 0.315501 (Simulation time: 0 hr 36 min 27 sec) 
Heartbeat CPU 0 instructions: 1110000003 cycles: 2938361023 heartbeat IPC: 0.310311 cumulative IPC: 0.315443 (Simulation time: 0 hr 36 min 46 sec) 
Heartbeat CPU 0 instructions: 1120000003 cycles: 2972545263 heartbeat IPC: 0.292532 cumulative IPC: 0.315175 (Simulation time: 0 hr 37 min 7 sec) 
Heartbeat CPU 0 instructions: 1130000000 cycles: 3007383472 heartbeat IPC: 0.287041 cumulative IPC: 0.314843 (Simulation time: 0 hr 37 min 28 sec) 
Heartbeat CPU 0 instructions: 1140000000 cycles: 3042109352 heartbeat IPC: 0.28797 cumulative IPC: 0.314531 (Simulation time: 0 hr 37 min 48 sec) 
Heartbeat CPU 0 instructions: 1150000000 cycles: 3078615868 heartbeat IPC: 0.273924 cumulative IPC: 0.314041 (Simulation time: 0 hr 38 min 10 sec) 
Heartbeat CPU 0 instructions: 1160000000 cycles: 3113725314 heartbeat IPC: 0.284824 cumulative IPC: 0.313706 (Simulation time: 0 hr 38 min 31 sec) 
Heartbeat CPU 0 instructions: 1170000000 cycles: 3144587911 heartbeat IPC: 0.324017 cumulative IPC: 0.313809 (Simulation time: 0 hr 38 min 50 sec) 
Heartbeat CPU 0 instructions: 1180000000 cycles: 3171246633 heartbeat IPC: 0.375112 cumulative IPC: 0.314333 (Simulation time: 0 hr 39 min 7 sec) 
Heartbeat CPU 0 instructions: 1190000000 cycles: 3203397254 heartbeat IPC: 0.311036 cumulative IPC: 0.314299 (Simulation time: 0 hr 39 min 26 sec) 
Heartbeat CPU 0 instructions: 1200000001 cycles: 3230269339 heartbeat IPC: 0.372133 cumulative IPC: 0.314788 (Simulation time: 0 hr 39 min 44 sec) 
Finished CPU 0 instructions: 1000000000 cycles: 3176736493 cumulative IPC: 0.314788 (Simulation time: 0 hr 39 min 44 sec) 

ChampSim completed all CPUs

Region of Interest Statistics

CPU 0 cumulative IPC: 0.314788 instructions: 1000000000 cycles: 3176736493
cpu0_DTLB TOTAL     ACCESS:  240373316  HIT:  216489949  MISS:   23883367
cpu0_DTLB LOAD      ACCESS:  212563826  HIT:  191554207  MISS:   21009619
cpu0_DTLB RFO       ACCESS:   27809490  HIT:   24935742  MISS:    2873748
cpu0_DTLB PREFETCH  ACCESS:          0  HIT:          0  MISS:          0
cpu0_DTLB WRITEBACK ACCESS:          0  HIT:          0  MISS:          0
cpu0_DTLB TRANSLATION ACCESS:          0  HIT:          0  MISS:          0
cpu0_DTLB PREFETCH  REQUESTED:          0  ISSUED:          0  USEFUL:          0  USELESS:          0
cpu0_DTLB AVERAGE MISS LATENCY: 10.431 cycles
cpu0_ITLB TOTAL     ACCESS:  128011199  HIT:  128011199  MISS:          0
cpu0_ITLB LOAD      ACCESS:  128011199  HIT:  128011199  MISS:          0
cpu0_ITLB RFO       ACCESS:          0  HIT:          0  MISS:          0
cpu0_ITLB PREFETCH  ACCESS:          0  HIT:          0  MISS:          0
cpu0_ITLB WRITEBACK ACCESS:          0  HIT:          0  MISS:          0
cpu0_ITLB TRANSLATION ACCESS:          0  HIT:          0  MISS:          0
cpu0_ITLB PREFETCH  REQUESTED:          0  ISSUED:          0  USEFUL:          0  USELESS:          0
cpu0_ITLB AVERAGE MISS LATENCY: nan cycles
cpu0_L1I TOTAL     ACCESS:      72099  HIT:      72095  MISS:          4
cpu0_L1I LOAD      ACCESS:      72099  HIT:      72095  MISS:          4
cpu0_L1I RFO       ACCESS:          0  HIT:          0  MISS:          0
cpu0_L1I PREFETCH  ACCESS:          0  HIT:          0  MISS:          0
cpu0_L1I WRITEBACK ACCESS:          0  HIT:          0  MISS:          0
cpu0_L1I TRANSLATION ACCESS:          0  HIT:          0  MISS:          0
cpu0_L1I PREFETCH  REQUESTED:          0  ISSUED:          0  USEFUL:          0  USELESS:          0
cpu0_L1I AVERAGE MISS LATENCY: 194.25 cycles
cpu0_STLB TOTAL     ACCESS:   23883367  HIT:   19653772  MISS:    4229595
cpu0_STLB LOAD      ACCESS:   21009619  HIT:   17444822  MISS:    3564797
cpu0_STLB RFO       ACCESS:    2873748  HIT:    2208950  MISS:     664798
cpu0_STLB PREFETCH  ACCESS:          0  HIT:          0  MISS:          0
cpu0_STLB WRITEBACK ACCESS:          0  HIT:          0  MISS:          0
cpu0_STLB TRANSLATION ACCESS:          0  HIT:          0  MISS:          0
cpu0_STLB PREFETCH  REQUESTED:          0  ISSUED:          0  USEFUL:          0  USELESS:          0
cpu0_STLB AVERAGE MISS LATENCY: 8.01507 cycles
cpu0_L1D TOTAL     ACCESS:  265141145  HIT:  236255145  MISS:   28886000
cpu0_L1D LOAD      ACCESS:  218149961  HIT:  189610793  MISS:   28539168
cpu0_L1D RFO       ACCESS:   42882021  HIT:   42546999  MISS:     335022
cpu0_L1D PREFETCH  ACCESS:          0  HIT:          0  MISS:          0
cpu0_L1D WRITEBACK ACCESS:          0  HIT:          0  MISS:          0
cpu0_L1D TRANSLATION ACCESS:    4109163  HIT:    4097353  MISS:      11810
cpu0_L1D PREFETCH  REQUESTED:          0  ISSUED:          0  USEFUL:          0  USELESS:          0
cpu0_L1D AVERAGE MISS LATENCY: 71.1269 cycles
cpu0_L2C TOTAL     ACCESS:   38389862  HIT:   27184356  MISS:   11205506
cpu0_L2C LOAD      ACCESS:   28538305  HIT:   17399785  MISS:   11138520
cpu0_L2C RFO       ACCESS:     335009  HIT:     269571  MISS:      65438
cpu0_L2C PREFETCH  ACCESS:          0  HIT:          0  MISS:          0
cpu0_L2C WRITEBACK ACCESS:    9504738  HIT:    9504011  MISS:        727
cpu0_L2C TRANSLATION ACCESS:      11810  HIT:      10989  MISS:        821
cpu0_L2C PREFETCH  REQUESTED:          0  ISSUED:          0  USEFUL:          0  USELESS:          0
cpu0_L2C AVERAGE MISS LATENCY: 154.946 cycles
LLC TOTAL     ACCESS:   15308474  HIT:    3350912  MISS:   11957562
LLC LOAD      ACCESS:   11137105  HIT:    2623305  MISS:    8513800
LLC RFO       ACCESS:      65433  HIT:      17832  MISS:      47601
LLC PREFETCH  ACCESS:          0  HIT:          0  MISS:          0
LLC WRITEBACK ACCESS:    4105115  HIT:     709665  MISS:    3395450
LLC TRANSLATION ACCESS:        821  HIT:        110  MISS:        711
LLC PREFETCH  REQUESTED:          0  ISSUED:          0  USEFUL:          0  USELESS:          0
LLC AVERAGE MISS LATENCY: 125.525 cycles

DRAM Statistics
 CHANNEL 0
 RQ ROW_BUFFER_HIT:      38803  ROW_BUFFER_MISS:    8262650
 DBUS AVG_CONGESTED_CYCLE:     3.5962
 WQ ROW_BUFFER_HIT:     280894  ROW_BUFFER_MISS:    3423135  FULL:          0


CPU 0 Branch Prediction Accuracy: 69.3103% MPKI: 58.5696 Average ROB Occupancy at Mispredict: 5.11767
Branch type MPKI
BRANCH_DIRECT_JUMP: 5e-06
BRANCH_INDIRECT: 0
BRANCH_CONDITIONAL: 58.5696
BRANCH_DIRECT_CALL: 0
BRANCH_INDIRECT_CALL: 0
BRANCH_RETURN: 1e-06

