
*** ChampSim Multicore Out-of-Order Simulator ***

Warmup Instructions: 200000000
Simulation Instructions: 1000000000
Number of CPUs: 1
Off-chip DRAM Size: 4 GiB Channels: 1 Width: 64-bit Data Rate: 3200 MT/s

VirtualMemory physical capacity: 8588881920 num_ppages: 2096895
VirtualMemory page size: 4096 log2_page_size: 12

CPU 0 runs Traces/gcc_13B.trace.xz
CPU 0 Bimodal branch predictor
Basic BTB sets: 1024 ways: 8 indirect buffer size: 4096 RAS size: 64
Initialize arch replacement policy state
Finished initializing arch replacement policy state
Heartbeat CPU 0 instructions: 10000003 cycles: 2971545 heartbeat IPC: 3.36525 cumulative IPC: 3.36525 (Simulation time: 0 hr 0 min 24 sec) 
Heartbeat CPU 0 instructions: 20000002 cycles: 5721029 heartbeat IPC: 3.63705 cumulative IPC: 3.49587 (Simulation time: 0 hr 0 min 46 sec) 
Heartbeat CPU 0 instructions: 30000003 cycles: 8607730 heartbeat IPC: 3.46416 cumulative IPC: 3.48524 (Simulation time: 0 hr 1 min 8 sec) 
Heartbeat CPU 0 instructions: 40000002 cycles: 11271763 heartbeat IPC: 3.75371 cumulative IPC: 3.54869 (Simulation time: 0 hr 1 min 27 sec) 
Heartbeat CPU 0 instructions: 50000002 cycles: 13771763 heartbeat IPC: 4 cumulative IPC: 3.63062 (Simulation time: 0 hr 1 min 43 sec) 
Heartbeat CPU 0 instructions: 60000002 cycles: 16271763 heartbeat IPC: 4 cumulative IPC: 3.68737 (Simulation time: 0 hr 1 min 59 sec) 
Heartbeat CPU 0 instructions: 70000002 cycles: 18771763 heartbeat IPC: 4 cumulative IPC: 3.72901 (Simulation time: 0 hr 2 min 16 sec) 
Heartbeat CPU 0 instructions: 80000002 cycles: 21271763 heartbeat IPC: 4 cumulative IPC: 3.76085 (Simulation time: 0 hr 2 min 32 sec) 
Heartbeat CPU 0 instructions: 90000002 cycles: 23771763 heartbeat IPC: 4 cumulative IPC: 3.786 (Simulation time: 0 hr 2 min 48 sec) 
Heartbeat CPU 0 instructions: 100000002 cycles: 26271763 heartbeat IPC: 4 cumulative IPC: 3.80637 (Simulation time: 0 hr 3 min 4 sec) 
Heartbeat CPU 0 instructions: 110000002 cycles: 28771872 heartbeat IPC: 3.99983 cumulative IPC: 3.82318 (Simulation time: 0 hr 3 min 20 sec) 
Heartbeat CPU 0 instructions: 120000003 cycles: 31278263 heartbeat IPC: 3.9898 cumulative IPC: 3.83653 (Simulation time: 0 hr 3 min 35 sec) 
Heartbeat CPU 0 instructions: 130000002 cycles: 33876667 heartbeat IPC: 3.84852 cumulative IPC: 3.83745 (Simulation time: 0 hr 3 min 57 sec) 
Heartbeat CPU 0 instructions: 140000002 cycles: 36390457 heartbeat IPC: 3.97806 cumulative IPC: 3.84716 (Simulation time: 0 hr 4 min 14 sec) 
Heartbeat CPU 0 instructions: 150000003 cycles: 39126024 heartbeat IPC: 3.65555 cumulative IPC: 3.83377 (Simulation time: 0 hr 4 min 33 sec) 
Heartbeat CPU 0 instructions: 160000003 cycles: 41626024 heartbeat IPC: 4 cumulative IPC: 3.84375 (Simulation time: 0 hr 4 min 50 sec) 
Heartbeat CPU 0 instructions: 170000002 cycles: 44221658 heartbeat IPC: 3.85262 cumulative IPC: 3.84427 (Simulation time: 0 hr 5 min 6 sec) 
Heartbeat CPU 0 instructions: 180000003 cycles: 46858975 heartbeat IPC: 3.79173 cumulative IPC: 3.84131 (Simulation time: 0 hr 5 min 25 sec) 
Heartbeat CPU 0 instructions: 190000002 cycles: 49412208 heartbeat IPC: 3.9166 cumulative IPC: 3.8452 (Simulation time: 0 hr 5 min 44 sec) 
Heartbeat CPU 0 instructions: 200000003 cycles: 51971359 heartbeat IPC: 3.90755 cumulative IPC: 3.84827 (Simulation time: 0 hr 6 min 1 sec) 

Warmup complete CPU 0 instructions: 200000003 cycles: 51971359 (Simulation time: 0 hr 6 min 1 sec) 

Heartbeat CPU 0 instructions: 210000001 cycles: 97414453 heartbeat IPC: 0.220055 cumulative IPC: 0.220055 (Simulation time: 0 hr 6 min 44 sec) 
Heartbeat CPU 0 instructions: 220000000 cycles: 138166208 heartbeat IPC: 0.245388 cumulative IPC: 0.232032 (Simulation time: 0 hr 7 min 26 sec) 
Heartbeat CPU 0 instructions: 230000000 cycles: 234666471 heartbeat IPC: 0.103627 cumulative IPC: 0.164208 (Simulation time: 0 hr 13 min 9 sec) 
Heartbeat CPU 0 instructions: 240000002 cycles: 279784487 heartbeat IPC: 0.221641 cumulative IPC: 0.175582 (Simulation time: 0 hr 16 min 7 sec) 
Heartbeat CPU 0 instructions: 250000001 cycles: 317959163 heartbeat IPC: 0.261954 cumulative IPC: 0.187979 (Simulation time: 0 hr 17 min 16 sec) 
Heartbeat CPU 0 instructions: 260000004 cycles: 371426139 heartbeat IPC: 0.187031 cumulative IPC: 0.18782 (Simulation time: 0 hr 18 min 16 sec) 
Heartbeat CPU 0 instructions: 270000002 cycles: 393750545 heartbeat IPC: 0.44794 cumulative IPC: 0.204811 (Simulation time: 0 hr 18 min 40 sec) 
Heartbeat CPU 0 instructions: 280000001 cycles: 416759321 heartbeat IPC: 0.434617 cumulative IPC: 0.219305 (Simulation time: 0 hr 19 min 4 sec) 
Heartbeat CPU 0 instructions: 290000001 cycles: 446657139 heartbeat IPC: 0.334473 cumulative IPC: 0.228029 (Simulation time: 0 hr 19 min 32 sec) 
Heartbeat CPU 0 instructions: 300000000 cycles: 494085073 heartbeat IPC: 0.210846 cumulative IPC: 0.226186 (Simulation time: 0 hr 23 min 5 sec) 
Heartbeat CPU 0 instructions: 310000000 cycles: 543649833 heartbeat IPC: 0.201756 cumulative IPC: 0.223723 (Simulation time: 0 hr 27 min 28 sec) 
Heartbeat CPU 0 instructions: 320000003 cycles: 564446586 heartbeat IPC: 0.480844 cumulative IPC: 0.234158 (Simulation time: 0 hr 27 min 55 sec) 
Heartbeat CPU 0 instructions: 330000001 cycles: 584766349 heartbeat IPC: 0.492132 cumulative IPC: 0.243996 (Simulation time: 0 hr 28 min 23 sec) 
Heartbeat CPU 0 instructions: 340000001 cycles: 619908335 heartbeat IPC: 0.28456 cumulative IPC: 0.246506 (Simulation time: 0 hr 28 min 58 sec) 
Heartbeat CPU 0 instructions: 350000000 cycles: 676465248 heartbeat IPC: 0.176813 cumulative IPC: 0.240194 (Simulation time: 0 hr 29 min 38 sec) 
Heartbeat CPU 0 instructions: 360000001 cycles: 734802773 heartbeat IPC: 0.171416 cumulative IPC: 0.234318 (Simulation time: 0 hr 30 min 50 sec) 
Heartbeat CPU 0 instructions: 370000003 cycles: 771696528 heartbeat IPC: 0.271049 cumulative IPC: 0.236201 (Simulation time: 0 hr 32 min 7 sec) 
Heartbeat CPU 0 instructions: 380000000 cycles: 795218168 heartbeat IPC: 0.42514 cumulative IPC: 0.242181 (Simulation time: 0 hr 32 min 33 sec) 
Heartbeat CPU 0 instructions: 390000002 cycles: 817663225 heartbeat IPC: 0.445532 cumulative IPC: 0.248142 (Simulation time: 0 hr 32 min 58 sec) 
Heartbeat CPU 0 instructions: 400000002 cycles: 841381526 heartbeat IPC: 0.421615 cumulative IPC: 0.253354 (Simulation time: 0 hr 33 min 24 sec) 
Heartbeat CPU 0 instructions: 410000000 cycles: 863795266 heartbeat IPC: 0.446155 cumulative IPC: 0.258677 (Simulation time: 0 hr 33 min 50 sec) 
Heartbeat CPU 0 instructions: 420000000 cycles: 887084820 heartbeat IPC: 0.429377 cumulative IPC: 0.263437 (Simulation time: 0 hr 34 min 15 sec) 
Heartbeat CPU 0 instructions: 430000002 cycles: 910079203 heartbeat IPC: 0.434889 cumulative IPC: 0.268032 (Simulation time: 0 hr 34 min 41 sec) 
Heartbeat CPU 0 instructions: 440000002 cycles: 933122356 heartbeat IPC: 0.433968 cumulative IPC: 0.272371 (Simulation time: 0 hr 35 min 8 sec) 
Heartbeat CPU 0 instructions: 450000002 cycles: 956557799 heartbeat IPC: 0.426704 cumulative IPC: 0.276369 (Simulation time: 0 hr 35 min 34 sec) 
Heartbeat CPU 0 instructions: 460000000 cycles: 979975111 heartbeat IPC: 0.427034 cumulative IPC: 0.280171 (Simulation time: 0 hr 36 min 0 sec) 
Heartbeat CPU 0 instructions: 470000003 cycles: 1004538815 heartbeat IPC: 0.407105 cumulative IPC: 0.283444 (Simulation time: 0 hr 36 min 28 sec) 
Heartbeat CPU 0 instructions: 480000000 cycles: 1028389852 heartbeat IPC: 0.419269 cumulative IPC: 0.286762 (Simulation time: 0 hr 36 min 54 sec) 
Heartbeat CPU 0 instructions: 490000003 cycles: 1050756966 heartbeat IPC: 0.447085 cumulative IPC: 0.290353 (Simulation time: 0 hr 37 min 20 sec) 
Heartbeat CPU 0 instructions: 500000003 cycles: 1073711609 heartbeat IPC: 0.435642 cumulative IPC: 0.293617 (Simulation time: 0 hr 37 min 44 sec) 
Heartbeat CPU 0 instructions: 510000004 cycles: 1096772902 heartbeat IPC: 0.433627 cumulative IPC: 0.296707 (Simulation time: 0 hr 38 min 9 sec) 
Heartbeat CPU 0 instructions: 520000002 cycles: 1119225961 heartbeat IPC: 0.445374 cumulative IPC: 0.299835 (Simulation time: 0 hr 38 min 35 sec) 
Heartbeat CPU 0 instructions: 530000000 cycles: 1142138289 heartbeat IPC: 0.436446 cumulative IPC: 0.302706 (Simulation time: 0 hr 39 min 2 sec) 
Heartbeat CPU 0 instructions: 540000001 cycles: 1165383404 heartbeat IPC: 0.430198 cumulative IPC: 0.305368 (Simulation time: 0 hr 39 min 28 sec) 
Heartbeat CPU 0 instructions: 550000001 cycles: 1188892652 heartbeat IPC: 0.425365 cumulative IPC: 0.307849 (Simulation time: 0 hr 39 min 56 sec) 
Heartbeat CPU 0 instructions: 560000003 cycles: 1212528075 heartbeat IPC: 0.423094 cumulative IPC: 0.310196 (Simulation time: 0 hr 40 min 23 sec) 
Heartbeat CPU 0 instructions: 570000000 cycles: 1235937305 heartbeat IPC: 0.427182 cumulative IPC: 0.312509 (Simulation time: 0 hr 40 min 48 sec) 
Heartbeat CPU 0 instructions: 580000001 cycles: 1258682727 heartbeat IPC: 0.439649 cumulative IPC: 0.314905 (Simulation time: 0 hr 41 min 13 sec) 
Heartbeat CPU 0 instructions: 590000004 cycles: 1280741953 heartbeat IPC: 0.453325 cumulative IPC: 0.31739 (Simulation time: 0 hr 41 min 37 sec) 
Heartbeat CPU 0 instructions: 600000001 cycles: 1303370053 heartbeat IPC: 0.441928 cumulative IPC: 0.319642 (Simulation time: 0 hr 42 min 4 sec) 
Heartbeat CPU 0 instructions: 610000003 cycles: 1325922871 heartbeat IPC: 0.443404 cumulative IPC: 0.321833 (Simulation time: 0 hr 42 min 30 sec) 
Heartbeat CPU 0 instructions: 620000001 cycles: 1347831680 heartbeat IPC: 0.456437 cumulative IPC: 0.324109 (Simulation time: 0 hr 42 min 54 sec) 
Heartbeat CPU 0 instructions: 630000004 cycles: 1370675920 heartbeat IPC: 0.437747 cumulative IPC: 0.326078 (Simulation time: 0 hr 43 min 20 sec) 
Heartbeat CPU 0 instructions: 640000001 cycles: 1393715063 heartbeat IPC: 0.434044 cumulative IPC: 0.327931 (Simulation time: 0 hr 43 min 47 sec) 
Heartbeat CPU 0 instructions: 650000001 cycles: 1416932133 heartbeat IPC: 0.430718 cumulative IPC: 0.32968 (Simulation time: 0 hr 44 min 14 sec) 
Heartbeat CPU 0 instructions: 660000001 cycles: 1440716819 heartbeat IPC: 0.420439 cumulative IPC: 0.331234 (Simulation time: 0 hr 44 min 40 sec) 
Heartbeat CPU 0 instructions: 670000004 cycles: 1464458532 heartbeat IPC: 0.4212 cumulative IPC: 0.332746 (Simulation time: 0 hr 45 min 6 sec) 
Heartbeat CPU 0 instructions: 680000000 cycles: 1487190876 heartbeat IPC: 0.439902 cumulative IPC: 0.334444 (Simulation time: 0 hr 45 min 30 sec) 
Heartbeat CPU 0 instructions: 690000003 cycles: 1510520709 heartbeat IPC: 0.428636 cumulative IPC: 0.33595 (Simulation time: 0 hr 45 min 55 sec) 
Heartbeat CPU 0 instructions: 700000003 cycles: 1533524963 heartbeat IPC: 0.434702 cumulative IPC: 0.337484 (Simulation time: 0 hr 46 min 21 sec) 
Heartbeat CPU 0 instructions: 710000001 cycles: 1556875796 heartbeat IPC: 0.42825 cumulative IPC: 0.338892 (Simulation time: 0 hr 46 min 47 sec) 
Heartbeat CPU 0 instructions: 720000004 cycles: 1579376966 heartbeat IPC: 0.444421 cumulative IPC: 0.340447 (Simulation time: 0 hr 47 min 14 sec) 
Heartbeat CPU 0 instructions: 730000001 cycles: 1602664735 heartbeat IPC: 0.42941 cumulative IPC: 0.341783 (Simulation time: 0 hr 47 min 40 sec) 
Heartbeat CPU 0 instructions: 740000003 cycles: 1625759864 heartbeat IPC: 0.432992 cumulative IPC: 0.343121 (Simulation time: 0 hr 48 min 7 sec) 
Heartbeat CPU 0 instructions: 750000000 cycles: 1648208065 heartbeat IPC: 0.44547 cumulative IPC: 0.34456 (Simulation time: 0 hr 48 min 32 sec) 
Heartbeat CPU 0 instructions: 760000003 cycles: 1670911651 heartbeat IPC: 0.440459 cumulative IPC: 0.345905 (Simulation time: 0 hr 48 min 58 sec) 
Heartbeat CPU 0 instructions: 770000002 cycles: 1694350564 heartbeat IPC: 0.426641 cumulative IPC: 0.347057 (Simulation time: 0 hr 49 min 24 sec) 
Heartbeat CPU 0 instructions: 780000001 cycles: 1717587757 heartbeat IPC: 0.430345 cumulative IPC: 0.348219 (Simulation time: 0 hr 49 min 49 sec) 
Heartbeat CPU 0 instructions: 790000004 cycles: 1740469754 heartbeat IPC: 0.437025 cumulative IPC: 0.349423 (Simulation time: 0 hr 50 min 15 sec) 
Heartbeat CPU 0 instructions: 800000000 cycles: 1764094101 heartbeat IPC: 0.423292 cumulative IPC: 0.350442 (Simulation time: 0 hr 50 min 40 sec) 
Heartbeat CPU 0 instructions: 810000004 cycles: 1787489253 heartbeat IPC: 0.427439 cumulative IPC: 0.35148 (Simulation time: 0 hr 51 min 6 sec) 
Heartbeat CPU 0 instructions: 820000000 cycles: 1810943979 heartbeat IPC: 0.426353 cumulative IPC: 0.352478 (Simulation time: 0 hr 51 min 31 sec) 
Heartbeat CPU 0 instructions: 830000000 cycles: 1834499938 heartbeat IPC: 0.424521 cumulative IPC: 0.353431 (Simulation time: 0 hr 51 min 57 sec) 
Heartbeat CPU 0 instructions: 840000001 cycles: 1857414319 heartbeat IPC: 0.436407 cumulative IPC: 0.354484 (Simulation time: 0 hr 52 min 23 sec) 
Heartbeat CPU 0 instructions: 850000004 cycles: 1879918878 heartbeat IPC: 0.444355 cumulative IPC: 0.35559 (Simulation time: 0 hr 52 min 49 sec) 
Heartbeat CPU 0 instructions: 860000001 cycles: 1903050264 heartbeat IPC: 0.432313 cumulative IPC: 0.356549 (Simulation time: 0 hr 53 min 15 sec) 
Heartbeat CPU 0 instructions: 870000000 cycles: 1925983169 heartbeat IPC: 0.436055 cumulative IPC: 0.357522 (Simulation time: 0 hr 53 min 40 sec) 
Heartbeat CPU 0 instructions: 880000000 cycles: 1948681480 heartbeat IPC: 0.440561 cumulative IPC: 0.358516 (Simulation time: 0 hr 54 min 6 sec) 
Heartbeat CPU 0 instructions: 890000000 cycles: 1970654758 heartbeat IPC: 0.455098 cumulative IPC: 0.359622 (Simulation time: 0 hr 54 min 32 sec) 
Heartbeat CPU 0 instructions: 900000001 cycles: 1993861542 heartbeat IPC: 0.430909 cumulative IPC: 0.360474 (Simulation time: 0 hr 54 min 57 sec) 
Heartbeat CPU 0 instructions: 910000000 cycles: 2017260383 heartbeat IPC: 0.427372 cumulative IPC: 0.36127 (Simulation time: 0 hr 55 min 23 sec) 
Heartbeat CPU 0 instructions: 920000002 cycles: 2040314952 heartbeat IPC: 0.433754 cumulative IPC: 0.36211 (Simulation time: 0 hr 55 min 49 sec) 
Heartbeat CPU 0 instructions: 930000003 cycles: 2063825713 heartbeat IPC: 0.425337 cumulative IPC: 0.362849 (Simulation time: 0 hr 56 min 15 sec) 
Heartbeat CPU 0 instructions: 940000002 cycles: 2086368462 heartbeat IPC: 0.443602 cumulative IPC: 0.363744 (Simulation time: 0 hr 56 min 39 sec) 
Heartbeat CPU 0 instructions: 950000000 cycles: 2109283722 heartbeat IPC: 0.43639 cumulative IPC: 0.364553 (Simulation time: 0 hr 57 min 5 sec) 
Heartbeat CPU 0 instructions: 960000000 cycles: 2131607924 heartbeat IPC: 0.447944 cumulative IPC: 0.365448 (Simulation time: 0 hr 57 min 31 sec) 
Heartbeat CPU 0 instructions: 970000001 cycles: 2153942877 heartbeat IPC: 0.447729 cumulative IPC: 0.366323 (Simulation time: 0 hr 57 min 57 sec) 
Heartbeat CPU 0 instructions: 980000003 cycles: 2177023336 heartbeat IPC: 0.433267 cumulative IPC: 0.36705 (Simulation time: 0 hr 58 min 23 sec) 
Heartbeat CPU 0 instructions: 990000000 cycles: 2199820744 heartbeat IPC: 0.438646 cumulative IPC: 0.36781 (Simulation time: 0 hr 58 min 48 sec) 
*** Reached end of trace: Traces/gcc_13B.trace.xz
Heartbeat CPU 0 instructions: 1000000001 cycles: 2222215158 heartbeat IPC: 0.44654 cumulative IPC: 0.368622 (Simulation time: 0 hr 59 min 14 sec) 
Heartbeat CPU 0 instructions: 1010000003 cycles: 2272140243 heartbeat IPC: 0.2003 cumulative IPC: 0.364837 (Simulation time: 1 hr 0 min 29 sec) 
Heartbeat CPU 0 instructions: 1020000003 cycles: 2321263789 heartbeat IPC: 0.203568 cumulative IPC: 0.361346 (Simulation time: 1 hr 1 min 29 sec) 
Heartbeat CPU 0 instructions: 1030000002 cycles: 2379155613 heartbeat IPC: 0.172736 cumulative IPC: 0.356654 (Simulation time: 1 hr 2 min 40 sec) 
Heartbeat CPU 0 instructions: 1040000004 cycles: 2419320438 heartbeat IPC: 0.248974 cumulative IPC: 0.354827 (Simulation time: 1 hr 3 min 48 sec) 
Heartbeat CPU 0 instructions: 1050000002 cycles: 2437001355 heartbeat IPC: 0.565581 cumulative IPC: 0.35639 (Simulation time: 1 hr 4 min 6 sec) 
Heartbeat CPU 0 instructions: 1060000003 cycles: 2454638778 heartbeat IPC: 0.566976 cumulative IPC: 0.357936 (Simulation time: 1 hr 4 min 25 sec) 
Heartbeat CPU 0 instructions: 1070000000 cycles: 2472896666 heartbeat IPC: 0.547708 cumulative IPC: 0.359367 (Simulation time: 1 hr 4 min 43 sec) 
Heartbeat CPU 0 instructions: 1080000002 cycles: 2490646502 heartbeat IPC: 0.563386 cumulative IPC: 0.360852 (Simulation time: 1 hr 5 min 0 sec) 
Heartbeat CPU 0 instructions: 1090000000 cycles: 2508419966 heartbeat IPC: 0.562636 cumulative IPC: 0.362312 (Simulation time: 1 hr 5 min 16 sec) 
Heartbeat CPU 0 instructions: 1100000000 cycles: 2525920115 heartbeat IPC: 0.571424 cumulative IPC: 0.363791 (Simulation time: 1 hr 5 min 33 sec) 
Heartbeat CPU 0 instructions: 1110000002 cycles: 2551012040 heartbeat IPC: 0.398535 cumulative IPC: 0.36414 (Simulation time: 1 hr 5 min 54 sec) 
Heartbeat CPU 0 instructions: 1120000004 cycles: 2576920968 heartbeat IPC: 0.385967 cumulative IPC: 0.364364 (Simulation time: 1 hr 6 min 15 sec) 
Heartbeat CPU 0 instructions: 1130000000 cycles: 2608483400 heartbeat IPC: 0.316832 cumulative IPC: 0.363777 (Simulation time: 1 hr 6 min 44 sec) 
Heartbeat CPU 0 instructions: 1140000003 cycles: 2637799444 heartbeat IPC: 0.34111 cumulative IPC: 0.36352 (Simulation time: 1 hr 7 min 10 sec) 
Heartbeat CPU 0 instructions: 1150000003 cycles: 2672006979 heartbeat IPC: 0.292333 cumulative IPC: 0.36259 (Simulation time: 1 hr 8 min 29 sec) 
Heartbeat CPU 0 instructions: 1160000003 cycles: 2703687190 heartbeat IPC: 0.315654 cumulative IPC: 0.36203 (Simulation time: 1 hr 8 min 59 sec) 
Heartbeat CPU 0 instructions: 1170000000 cycles: 2760705907 heartbeat IPC: 0.175381 cumulative IPC: 0.358101 (Simulation time: 1 hr 10 min 0 sec) 
Heartbeat CPU 0 instructions: 1180000004 cycles: 2815060487 heartbeat IPC: 0.183977 cumulative IPC: 0.354676 (Simulation time: 1 hr 11 min 9 sec) 
Heartbeat CPU 0 instructions: 1190000001 cycles: 2859760013 heartbeat IPC: 0.223716 cumulative IPC: 0.352591 (Simulation time: 1 hr 11 min 53 sec) 
Heartbeat CPU 0 instructions: 1200000001 cycles: 2904912804 heartbeat IPC: 0.22147 cumulative IPC: 0.350515 (Simulation time: 1 hr 12 min 37 sec) 
Finished CPU 0 instructions: 1000000003 cycles: 2852941446 cumulative IPC: 0.350515 (Simulation time: 1 hr 12 min 37 sec) 

ChampSim completed all CPUs

Region of Interest Statistics

CPU 0 cumulative IPC: 0.350515 instructions: 1000000003 cycles: 2852941446
cpu0_DTLB TOTAL     ACCESS:  229614571  HIT:  224355645  MISS:    5258926
cpu0_DTLB LOAD      ACCESS:  168405166  HIT:  163763315  MISS:    4641851
cpu0_DTLB RFO       ACCESS:   61209405  HIT:   60592330  MISS:     617075
cpu0_DTLB PREFETCH  ACCESS:          0  HIT:          0  MISS:          0
cpu0_DTLB WRITEBACK ACCESS:          0  HIT:          0  MISS:          0
cpu0_DTLB TRANSLATION ACCESS:          0  HIT:          0  MISS:          0
cpu0_DTLB PREFETCH  REQUESTED:          0  ISSUED:          0  USEFUL:          0  USELESS:          0
cpu0_DTLB AVERAGE MISS LATENCY: 21.1256 cycles
cpu0_ITLB TOTAL     ACCESS:   98565457  HIT:   98564218  MISS:       1239
cpu0_ITLB LOAD      ACCESS:   98565457  HIT:   98564218  MISS:       1239
cpu0_ITLB RFO       ACCESS:          0  HIT:          0  MISS:          0
cpu0_ITLB PREFETCH  ACCESS:          0  HIT:          0  MISS:          0
cpu0_ITLB WRITEBACK ACCESS:          0  HIT:          0  MISS:          0
cpu0_ITLB TRANSLATION ACCESS:          0  HIT:          0  MISS:          0
cpu0_ITLB PREFETCH  REQUESTED:          0  ISSUED:          0  USEFUL:          0  USELESS:          0
cpu0_ITLB AVERAGE MISS LATENCY: 32.912 cycles
cpu0_L1I TOTAL     ACCESS:  104511905  HIT:  104505217  MISS:       6688
cpu0_L1I LOAD      ACCESS:  104511905  HIT:  104505217  MISS:       6688
cpu0_L1I RFO       ACCESS:          0  HIT:          0  MISS:          0
cpu0_L1I PREFETCH  ACCESS:          0  HIT:          0  MISS:          0
cpu0_L1I WRITEBACK ACCESS:          0  HIT:          0  MISS:          0
cpu0_L1I TRANSLATION ACCESS:          0  HIT:          0  MISS:          0
cpu0_L1I PREFETCH  REQUESTED:          0  ISSUED:          0  USEFUL:          0  USELESS:          0
cpu0_L1I AVERAGE MISS LATENCY: 78.9459 cycles
cpu0_STLB TOTAL     ACCESS:    5260165  HIT:    2922101  MISS:    2338064
cpu0_STLB LOAD      ACCESS:    4643090  HIT:    2830647  MISS:    1812443
cpu0_STLB RFO       ACCESS:     617075  HIT:      91454  MISS:     525621
cpu0_STLB PREFETCH  ACCESS:          0  HIT:          0  MISS:          0
cpu0_STLB WRITEBACK ACCESS:          0  HIT:          0  MISS:          0
cpu0_STLB TRANSLATION ACCESS:          0  HIT:          0  MISS:          0
cpu0_STLB PREFETCH  REQUESTED:          0  ISSUED:          0  USEFUL:          0  USELESS:          0
cpu0_STLB AVERAGE MISS LATENCY: 27.2272 cycles
cpu0_L1D TOTAL     ACCESS:  294718612  HIT:  278397541  MISS:   16321071
cpu0_L1D LOAD      ACCESS:  157190626  HIT:  144046672  MISS:   13143954
cpu0_L1D RFO       ACCESS:  135202787  HIT:  132041601  MISS:    3161186
cpu0_L1D PREFETCH  ACCESS:          0  HIT:          0  MISS:          0
cpu0_L1D WRITEBACK ACCESS:          0  HIT:          0  MISS:          0
cpu0_L1D TRANSLATION ACCESS:    2325199  HIT:    2309268  MISS:      15931
cpu0_L1D PREFETCH  REQUESTED:          0  ISSUED:          0  USEFUL:          0  USELESS:          0
cpu0_L1D AVERAGE MISS LATENCY: 328.842 cycles
cpu0_L2C TOTAL     ACCESS:   21054308  HIT:    6092033  MISS:   14962275
cpu0_L2C LOAD      ACCESS:   13150637  HIT:    1340056  MISS:   11810581
cpu0_L2C RFO       ACCESS:    3161186  HIT:      16049  MISS:    3145137
cpu0_L2C PREFETCH  ACCESS:          0  HIT:          0  MISS:          0
cpu0_L2C WRITEBACK ACCESS:    4726554  HIT:    4723149  MISS:       3405
cpu0_L2C TRANSLATION ACCESS:      15931  HIT:      12779  MISS:       3152
cpu0_L2C PREFETCH  REQUESTED:          0  ISSUED:          0  USEFUL:          0  USELESS:          0
cpu0_L2C AVERAGE MISS LATENCY: 346.722 cycles
LLC TOTAL     ACCESS:   19629094  HIT:     969733  MISS:   18659361
LLC LOAD      ACCESS:   11810579  HIT:     728140  MISS:   11082439
LLC RFO       ACCESS:    3145137  HIT:      64846  MISS:    3080291
LLC PREFETCH  ACCESS:          0  HIT:          0  MISS:          0
LLC WRITEBACK ACCESS:    4670226  HIT:     176642  MISS:    4493584
LLC TRANSLATION ACCESS:       3152  HIT:        105  MISS:       3047
LLC PREFETCH  REQUESTED:          0  ISSUED:          0  USEFUL:          0  USELESS:          0
LLC AVERAGE MISS LATENCY: 261.189 cycles

DRAM Statistics
 CHANNEL 0
 RQ ROW_BUFFER_HIT:    1629284  ROW_BUFFER_MISS:   12535600
 DBUS AVG_CONGESTED_CYCLE:    3.95104
 WQ ROW_BUFFER_HIT:    1041636  ROW_BUFFER_MISS:    3572232  FULL:       1130


CPU 0 Branch Prediction Accuracy: 90.1397% MPKI: 23.3937 Average ROB Occupancy at Mispredict: 26.4655
Branch type MPKI
BRANCH_DIRECT_JUMP: 0.000298
BRANCH_INDIRECT: 0.445375
BRANCH_CONDITIONAL: 22.9231
BRANCH_DIRECT_CALL: 0.000457
BRANCH_INDIRECT_CALL: 0.000609
BRANCH_RETURN: 0.023791

