
*** ChampSim Multicore Out-of-Order Simulator ***

Warmup Instructions: 200000000
Simulation Instructions: 1000000000
Number of CPUs: 1
Off-chip DRAM Size: 4 GiB Channels: 1 Width: 64-bit Data Rate: 3200 MT/s

VirtualMemory physical capacity: 8588881920 num_ppages: 2096895
VirtualMemory page size: 4096 log2_page_size: 12

CPU 0 runs Traces/GemsFDTD_109B.trace.xz
CPU 0 Bimodal branch predictor
Basic BTB sets: 1024 ways: 8 indirect buffer size: 4096 RAS size: 64
Initialize arch replacement policy state
Finished initializing arch replacement policy state
Heartbeat CPU 0 instructions: 10000002 cycles: 4294004 heartbeat IPC: 2.32883 cumulative IPC: 2.32883 (Simulation time: 0 hr 0 min 41 sec) 
Heartbeat CPU 0 instructions: 20000001 cycles: 8497061 heartbeat IPC: 2.37922 cumulative IPC: 2.35376 (Simulation time: 0 hr 1 min 20 sec) 
Heartbeat CPU 0 instructions: 30000001 cycles: 11012925 heartbeat IPC: 3.97478 cumulative IPC: 2.72407 (Simulation time: 0 hr 1 min 35 sec) 
Heartbeat CPU 0 instructions: 40000002 cycles: 13521517 heartbeat IPC: 3.9863 cumulative IPC: 2.95825 (Simulation time: 0 hr 1 min 50 sec) 
Heartbeat CPU 0 instructions: 50000004 cycles: 16417254 heartbeat IPC: 3.45335 cumulative IPC: 3.04558 (Simulation time: 0 hr 2 min 10 sec) 
Heartbeat CPU 0 instructions: 60000001 cycles: 20896774 heartbeat IPC: 2.23238 cumulative IPC: 2.87126 (Simulation time: 0 hr 2 min 52 sec) 
Heartbeat CPU 0 instructions: 70000001 cycles: 25376265 heartbeat IPC: 2.2324 cumulative IPC: 2.75848 (Simulation time: 0 hr 3 min 34 sec) 
Heartbeat CPU 0 instructions: 80000002 cycles: 29855794 heartbeat IPC: 2.23238 cumulative IPC: 2.67955 (Simulation time: 0 hr 4 min 16 sec) 
Heartbeat CPU 0 instructions: 90000002 cycles: 34335290 heartbeat IPC: 2.23239 cumulative IPC: 2.62121 (Simulation time: 0 hr 4 min 58 sec) 
Heartbeat CPU 0 instructions: 100000000 cycles: 38814806 heartbeat IPC: 2.23238 cumulative IPC: 2.57634 (Simulation time: 0 hr 5 min 39 sec) 
Heartbeat CPU 0 instructions: 110000000 cycles: 43294299 heartbeat IPC: 2.2324 cumulative IPC: 2.54075 (Simulation time: 0 hr 6 min 21 sec) 
Heartbeat CPU 0 instructions: 120000002 cycles: 47773801 heartbeat IPC: 2.23239 cumulative IPC: 2.51184 (Simulation time: 0 hr 7 min 3 sec) 
Heartbeat CPU 0 instructions: 130000000 cycles: 52253321 heartbeat IPC: 2.23238 cumulative IPC: 2.48788 (Simulation time: 0 hr 7 min 44 sec) 
Heartbeat CPU 0 instructions: 140000003 cycles: 56732823 heartbeat IPC: 2.23239 cumulative IPC: 2.46771 (Simulation time: 0 hr 8 min 26 sec) 
Heartbeat CPU 0 instructions: 150000002 cycles: 61212338 heartbeat IPC: 2.23238 cumulative IPC: 2.45049 (Simulation time: 0 hr 9 min 8 sec) 
Heartbeat CPU 0 instructions: 160000002 cycles: 65691837 heartbeat IPC: 2.23239 cumulative IPC: 2.43561 (Simulation time: 0 hr 9 min 49 sec) 
Heartbeat CPU 0 instructions: 170000001 cycles: 70171360 heartbeat IPC: 2.23238 cumulative IPC: 2.42264 (Simulation time: 0 hr 10 min 31 sec) 
Heartbeat CPU 0 instructions: 180000000 cycles: 74650858 heartbeat IPC: 2.23239 cumulative IPC: 2.41122 (Simulation time: 0 hr 11 min 12 sec) 
Heartbeat CPU 0 instructions: 190000004 cycles: 79130354 heartbeat IPC: 2.23239 cumulative IPC: 2.4011 (Simulation time: 0 hr 11 min 54 sec) 
Heartbeat CPU 0 instructions: 200000001 cycles: 83609877 heartbeat IPC: 2.23238 cumulative IPC: 2.39206 (Simulation time: 0 hr 12 min 35 sec) 

Warmup complete CPU 0 instructions: 200000001 cycles: 83609877 (Simulation time: 0 hr 12 min 35 sec) 

Heartbeat CPU 0 instructions: 210000002 cycles: 129061802 heartbeat IPC: 0.220013 cumulative IPC: 0.220013 (Simulation time: 0 hr 15 min 43 sec) 
Heartbeat CPU 0 instructions: 220000000 cycles: 174707008 heartbeat IPC: 0.219081 cumulative IPC: 0.219546 (Simulation time: 0 hr 18 min 53 sec) 
Heartbeat CPU 0 instructions: 230000000 cycles: 220139226 heartbeat IPC: 0.220108 cumulative IPC: 0.219733 (Simulation time: 0 hr 22 min 1 sec) 
Heartbeat CPU 0 instructions: 240000004 cycles: 265744419 heartbeat IPC: 0.219273 cumulative IPC: 0.219618 (Simulation time: 0 hr 25 min 9 sec) 
Heartbeat CPU 0 instructions: 250000004 cycles: 311367260 heartbeat IPC: 0.219188 cumulative IPC: 0.219532 (Simulation time: 0 hr 28 min 20 sec) 
Heartbeat CPU 0 instructions: 260000000 cycles: 356914557 heartbeat IPC: 0.219552 cumulative IPC: 0.219535 (Simulation time: 0 hr 31 min 30 sec) 
Heartbeat CPU 0 instructions: 270000001 cycles: 402492531 heartbeat IPC: 0.219404 cumulative IPC: 0.219516 (Simulation time: 0 hr 34 min 38 sec) 
Heartbeat CPU 0 instructions: 280000002 cycles: 448011732 heartbeat IPC: 0.219688 cumulative IPC: 0.219538 (Simulation time: 0 hr 37 min 46 sec) 
Heartbeat CPU 0 instructions: 290000000 cycles: 493564676 heartbeat IPC: 0.219525 cumulative IPC: 0.219536 (Simulation time: 0 hr 40 min 54 sec) 
Heartbeat CPU 0 instructions: 300000000 cycles: 534771260 heartbeat IPC: 0.24268 cumulative IPC: 0.22165 (Simulation time: 0 hr 43 min 25 sec) 
Heartbeat CPU 0 instructions: 310000004 cycles: 569540977 heartbeat IPC: 0.287607 cumulative IPC: 0.22637 (Simulation time: 0 hr 45 min 2 sec) 
Heartbeat CPU 0 instructions: 320000001 cycles: 604368463 heartbeat IPC: 0.287129 cumulative IPC: 0.230433 (Simulation time: 0 hr 46 min 39 sec) 
Heartbeat CPU 0 instructions: 330000002 cycles: 639140926 heartbeat IPC: 0.287584 cumulative IPC: 0.23401 (Simulation time: 0 hr 48 min 16 sec) 
Heartbeat CPU 0 instructions: 340000000 cycles: 673932224 heartbeat IPC: 0.287428 cumulative IPC: 0.237159 (Simulation time: 0 hr 49 min 53 sec) 
Heartbeat CPU 0 instructions: 350000000 cycles: 745966351 heartbeat IPC: 0.138823 cumulative IPC: 0.226464 (Simulation time: 0 hr 53 min 41 sec) 
Heartbeat CPU 0 instructions: 360000003 cycles: 780642481 heartbeat IPC: 0.288383 cumulative IPC: 0.229545 (Simulation time: 0 hr 55 min 17 sec) 
Heartbeat CPU 0 instructions: 370000003 cycles: 815300819 heartbeat IPC: 0.288531 cumulative IPC: 0.232339 (Simulation time: 0 hr 56 min 52 sec) 
Heartbeat CPU 0 instructions: 380000003 cycles: 849946405 heartbeat IPC: 0.288637 cumulative IPC: 0.234884 (Simulation time: 0 hr 58 min 28 sec) 
Heartbeat CPU 0 instructions: 390000002 cycles: 884615200 heartbeat IPC: 0.288444 cumulative IPC: 0.237202 (Simulation time: 1 hr 0 min 3 sec) 
Heartbeat CPU 0 instructions: 400000001 cycles: 919230991 heartbeat IPC: 0.288885 cumulative IPC: 0.239343 (Simulation time: 1 hr 1 min 39 sec) 
Heartbeat CPU 0 instructions: 410000003 cycles: 952566755 heartbeat IPC: 0.299978 cumulative IPC: 0.241669 (Simulation time: 1 hr 3 min 50 sec) 
Heartbeat CPU 0 instructions: 420000002 cycles: 986048192 heartbeat IPC: 0.298673 cumulative IPC: 0.243784 (Simulation time: 1 hr 6 min 9 sec) 
Heartbeat CPU 0 instructions: 430000001 cycles: 1019529686 heartbeat IPC: 0.298672 cumulative IPC: 0.245748 (Simulation time: 1 hr 8 min 27 sec) 
Heartbeat CPU 0 instructions: 440000002 cycles: 1048886044 heartbeat IPC: 0.340642 cumulative IPC: 0.248634 (Simulation time: 1 hr 10 min 32 sec) 
Heartbeat CPU 0 instructions: 450000002 cycles: 1082027035 heartbeat IPC: 0.301741 cumulative IPC: 0.250396 (Simulation time: 1 hr 12 min 49 sec) 
Heartbeat CPU 0 instructions: 460000003 cycles: 1115084274 heartbeat IPC: 0.302506 cumulative IPC: 0.252066 (Simulation time: 1 hr 15 min 5 sec) 
Heartbeat CPU 0 instructions: 470000002 cycles: 1148305318 heartbeat IPC: 0.301014 cumulative IPC: 0.253594 (Simulation time: 1 hr 21 min 18 sec) 
Heartbeat CPU 0 instructions: 480000003 cycles: 1182678324 heartbeat IPC: 0.290926 cumulative IPC: 0.254761 (Simulation time: 1 hr 23 min 40 sec) 
Heartbeat CPU 0 instructions: 490000001 cycles: 1217238027 heartbeat IPC: 0.289354 cumulative IPC: 0.255816 (Simulation time: 1 hr 26 min 3 sec) 
Heartbeat CPU 0 instructions: 500000004 cycles: 1247596896 heartbeat IPC: 0.329393 cumulative IPC: 0.257735 (Simulation time: 1 hr 28 min 12 sec) 
Heartbeat CPU 0 instructions: 510000000 cycles: 1280857558 heartbeat IPC: 0.300655 cumulative IPC: 0.258927 (Simulation time: 1 hr 30 min 29 sec) 
Heartbeat CPU 0 instructions: 520000000 cycles: 1312724840 heartbeat IPC: 0.313801 cumulative IPC: 0.26035 (Simulation time: 1 hr 32 min 42 sec) 
Heartbeat CPU 0 instructions: 530000000 cycles: 1342958735 heartbeat IPC: 0.330755 cumulative IPC: 0.26204 (Simulation time: 1 hr 34 min 46 sec) 
Heartbeat CPU 0 instructions: 540000004 cycles: 1369952186 heartbeat IPC: 0.37046 cumulative IPC: 0.264315 (Simulation time: 1 hr 36 min 31 sec) 
Heartbeat CPU 0 instructions: 550000000 cycles: 1380154566 heartbeat IPC: 0.980163 cumulative IPC: 0.269948 (Simulation time: 1 hr 37 min 15 sec) 
Heartbeat CPU 0 instructions: 560000001 cycles: 1394381404 heartbeat IPC: 0.702897 cumulative IPC: 0.274647 (Simulation time: 1 hr 38 min 11 sec) 
Heartbeat CPU 0 instructions: 570000000 cycles: 1413536827 heartbeat IPC: 0.522045 cumulative IPC: 0.278211 (Simulation time: 1 hr 39 min 21 sec) 
Heartbeat CPU 0 instructions: 580000004 cycles: 1427146355 heartbeat IPC: 0.73478 cumulative IPC: 0.282836 (Simulation time: 1 hr 40 min 18 sec) 
Heartbeat CPU 0 instructions: 590000003 cycles: 1438631627 heartbeat IPC: 0.87068 cumulative IPC: 0.287818 (Simulation time: 1 hr 41 min 9 sec) 
Heartbeat CPU 0 instructions: 600000001 cycles: 1458035529 heartbeat IPC: 0.51536 cumulative IPC: 0.291031 (Simulation time: 1 hr 42 min 21 sec) 
Heartbeat CPU 0 instructions: 610000000 cycles: 1472951611 heartbeat IPC: 0.670417 cumulative IPC: 0.295104 (Simulation time: 1 hr 43 min 20 sec) 
Heartbeat CPU 0 instructions: 620000004 cycles: 1484973877 heartbeat IPC: 0.83179 cumulative IPC: 0.299708 (Simulation time: 1 hr 44 min 13 sec) 
Heartbeat CPU 0 instructions: 630000000 cycles: 1501098280 heartbeat IPC: 0.620178 cumulative IPC: 0.303353 (Simulation time: 1 hr 45 min 17 sec) 
Heartbeat CPU 0 instructions: 640000003 cycles: 1518555251 heartbeat IPC: 0.572837 cumulative IPC: 0.306632 (Simulation time: 1 hr 46 min 22 sec) 
Heartbeat CPU 0 instructions: 650000004 cycles: 1531125394 heartbeat IPC: 0.795536 cumulative IPC: 0.310878 (Simulation time: 1 hr 47 min 17 sec) 
Heartbeat CPU 0 instructions: 660000000 cycles: 1544106683 heartbeat IPC: 0.770339 cumulative IPC: 0.314961 (Simulation time: 1 hr 48 min 11 sec) 
Heartbeat CPU 0 instructions: 670000002 cycles: 1563860659 heartbeat IPC: 0.506227 cumulative IPC: 0.317514 (Simulation time: 1 hr 49 min 23 sec) 
Heartbeat CPU 0 instructions: 680000001 cycles: 1577707808 heartbeat IPC: 0.72217 cumulative IPC: 0.321264 (Simulation time: 1 hr 50 min 20 sec) 
Heartbeat CPU 0 instructions: 690000003 cycles: 1589311020 heartbeat IPC: 0.86183 cumulative IPC: 0.32543 (Simulation time: 1 hr 51 min 12 sec) 
Heartbeat CPU 0 instructions: 700000004 cycles: 1620213349 heartbeat IPC: 0.3236 cumulative IPC: 0.325393 (Simulation time: 1 hr 53 min 32 sec) 
Heartbeat CPU 0 instructions: 710000002 cycles: 1657055590 heartbeat IPC: 0.271428 cumulative IPC: 0.324129 (Simulation time: 1 hr 56 min 18 sec) 
Heartbeat CPU 0 instructions: 720000000 cycles: 1693940694 heartbeat IPC: 0.271112 cumulative IPC: 0.322915 (Simulation time: 1 hr 59 min 6 sec) 
Heartbeat CPU 0 instructions: 730000003 cycles: 1730836750 heartbeat IPC: 0.271032 cumulative IPC: 0.321753 (Simulation time: 2 hr 1 min 53 sec) 
Heartbeat CPU 0 instructions: 740000001 cycles: 1767780259 heartbeat IPC: 0.270683 cumulative IPC: 0.320633 (Simulation time: 2 hr 4 min 42 sec) 
Heartbeat CPU 0 instructions: 750000000 cycles: 1804715320 heartbeat IPC: 0.270745 cumulative IPC: 0.319562 (Simulation time: 2 hr 7 min 31 sec) 
Heartbeat CPU 0 instructions: 760000000 cycles: 1841610781 heartbeat IPC: 0.271036 cumulative IPC: 0.318544 (Simulation time: 2 hr 10 min 21 sec) 
Heartbeat CPU 0 instructions: 770000002 cycles: 1878520946 heartbeat IPC: 0.270928 cumulative IPC: 0.317564 (Simulation time: 2 hr 13 min 9 sec) 
Heartbeat CPU 0 instructions: 780000004 cycles: 1915428302 heartbeat IPC: 0.270949 cumulative IPC: 0.316625 (Simulation time: 2 hr 15 min 59 sec) 
Heartbeat CPU 0 instructions: 790000002 cycles: 1952240229 heartbeat IPC: 0.271651 cumulative IPC: 0.315739 (Simulation time: 2 hr 18 min 47 sec) 
Heartbeat CPU 0 instructions: 800000003 cycles: 1989171949 heartbeat IPC: 0.27077 cumulative IPC: 0.314868 (Simulation time: 2 hr 21 min 34 sec) 
Heartbeat CPU 0 instructions: 810000001 cycles: 2026070938 heartbeat IPC: 0.27101 cumulative IPC: 0.314035 (Simulation time: 2 hr 24 min 21 sec) 
Heartbeat CPU 0 instructions: 820000002 cycles: 2062912112 heartbeat IPC: 0.271435 cumulative IPC: 0.313242 (Simulation time: 2 hr 27 min 8 sec) 
Heartbeat CPU 0 instructions: 830000002 cycles: 2099842994 heartbeat IPC: 0.270776 cumulative IPC: 0.312464 (Simulation time: 2 hr 29 min 55 sec) 
Heartbeat CPU 0 instructions: 840000002 cycles: 2136721362 heartbeat IPC: 0.271162 cumulative IPC: 0.311722 (Simulation time: 2 hr 32 min 41 sec) 
Heartbeat CPU 0 instructions: 850000004 cycles: 2173623158 heartbeat IPC: 0.27099 cumulative IPC: 0.311003 (Simulation time: 2 hr 35 min 30 sec) 
Heartbeat CPU 0 instructions: 860000004 cycles: 2210610059 heartbeat IPC: 0.270366 cumulative IPC: 0.310296 (Simulation time: 2 hr 38 min 18 sec) 
Heartbeat CPU 0 instructions: 870000000 cycles: 2247529130 heartbeat IPC: 0.270863 cumulative IPC: 0.309623 (Simulation time: 2 hr 41 min 6 sec) 
Heartbeat CPU 0 instructions: 880000003 cycles: 2284282808 heartbeat IPC: 0.272082 cumulative IPC: 0.308996 (Simulation time: 2 hr 43 min 53 sec) 
Heartbeat CPU 0 instructions: 890000001 cycles: 2321180680 heartbeat IPC: 0.271018 cumulative IPC: 0.30837 (Simulation time: 2 hr 46 min 40 sec) 
Heartbeat CPU 0 instructions: 900000004 cycles: 2357966620 heartbeat IPC: 0.271843 cumulative IPC: 0.307779 (Simulation time: 2 hr 49 min 26 sec) 
Heartbeat CPU 0 instructions: 910000000 cycles: 2394861110 heartbeat IPC: 0.271043 cumulative IPC: 0.307193 (Simulation time: 2 hr 52 min 12 sec) 
Heartbeat CPU 0 instructions: 920000003 cycles: 2431710677 heartbeat IPC: 0.271374 cumulative IPC: 0.306631 (Simulation time: 2 hr 54 min 59 sec) 
Heartbeat CPU 0 instructions: 930000002 cycles: 2468558914 heartbeat IPC: 0.271383 cumulative IPC: 0.306086 (Simulation time: 2 hr 57 min 47 sec) 
Heartbeat CPU 0 instructions: 940000004 cycles: 2505425025 heartbeat IPC: 0.271252 cumulative IPC: 0.305556 (Simulation time: 3 hr 0 min 34 sec) 
Heartbeat CPU 0 instructions: 950000004 cycles: 2538055671 heartbeat IPC: 0.30646 cumulative IPC: 0.305568 (Simulation time: 3 hr 2 min 22 sec) 
Heartbeat CPU 0 instructions: 960000002 cycles: 2570133232 heartbeat IPC: 0.311744 cumulative IPC: 0.305648 (Simulation time: 3 hr 4 min 0 sec) 
Heartbeat CPU 0 instructions: 970000004 cycles: 2602185648 heartbeat IPC: 0.311989 cumulative IPC: 0.305728 (Simulation time: 3 hr 5 min 37 sec) 
Heartbeat CPU 0 instructions: 980000004 cycles: 2634262774 heartbeat IPC: 0.311749 cumulative IPC: 0.305804 (Simulation time: 3 hr 7 min 14 sec) 
Heartbeat CPU 0 instructions: 990000000 cycles: 2666313650 heartbeat IPC: 0.312004 cumulative IPC: 0.305881 (Simulation time: 3 hr 8 min 52 sec) 
*** Reached end of trace: Traces/GemsFDTD_109B.trace.xz
Heartbeat CPU 0 instructions: 1000000003 cycles: 2708487572 heartbeat IPC: 0.237113 cumulative IPC: 0.304776 (Simulation time: 3 hr 10 min 51 sec) 
Heartbeat CPU 0 instructions: 1010000002 cycles: 2738206156 heartbeat IPC: 0.33649 cumulative IPC: 0.305131 (Simulation time: 3 hr 13 min 1 sec) 
Heartbeat CPU 0 instructions: 1020000000 cycles: 2770106178 heartbeat IPC: 0.313479 cumulative IPC: 0.30523 (Simulation time: 3 hr 15 min 16 sec) 
Heartbeat CPU 0 instructions: 1030000004 cycles: 2796395103 heartbeat IPC: 0.380388 cumulative IPC: 0.305959 (Simulation time: 3 hr 16 min 59 sec) 
Heartbeat CPU 0 instructions: 1040000004 cycles: 2805980827 heartbeat IPC: 1.04322 cumulative IPC: 0.308555 (Simulation time: 3 hr 17 min 40 sec) 
Heartbeat CPU 0 instructions: 1050000002 cycles: 2830171685 heartbeat IPC: 0.413379 cumulative IPC: 0.309478 (Simulation time: 3 hr 19 min 19 sec) 
Heartbeat CPU 0 instructions: 1060000002 cycles: 2875704038 heartbeat IPC: 0.219624 cumulative IPC: 0.308013 (Simulation time: 3 hr 22 min 28 sec) 
Heartbeat CPU 0 instructions: 1070000000 cycles: 2921314165 heartbeat IPC: 0.21925 cumulative IPC: 0.306586 (Simulation time: 3 hr 25 min 36 sec) 
Heartbeat CPU 0 instructions: 1080000004 cycles: 2967007157 heartbeat IPC: 0.218852 cumulative IPC: 0.305196 (Simulation time: 3 hr 28 min 45 sec) 
Heartbeat CPU 0 instructions: 1090000000 cycles: 3012622722 heartbeat IPC: 0.219223 cumulative IPC: 0.303857 (Simulation time: 3 hr 31 min 54 sec) 
Heartbeat CPU 0 instructions: 1100000003 cycles: 3058280017 heartbeat IPC: 0.219023 cumulative IPC: 0.302555 (Simulation time: 3 hr 35 min 3 sec) 
Heartbeat CPU 0 instructions: 1110000004 cycles: 3104054847 heartbeat IPC: 0.218461 cumulative IPC: 0.30128 (Simulation time: 3 hr 38 min 12 sec) 
Heartbeat CPU 0 instructions: 1120000004 cycles: 3149723619 heartbeat IPC: 0.218968 cumulative IPC: 0.300054 (Simulation time: 3 hr 41 min 21 sec) 
Heartbeat CPU 0 instructions: 1130000001 cycles: 3195340212 heartbeat IPC: 0.219218 cumulative IPC: 0.298869 (Simulation time: 3 hr 44 min 29 sec) 
Heartbeat CPU 0 instructions: 1140000001 cycles: 3240950113 heartbeat IPC: 0.219251 cumulative IPC: 0.297719 (Simulation time: 3 hr 47 min 38 sec) 
Heartbeat CPU 0 instructions: 1150000000 cycles: 3286608952 heartbeat IPC: 0.219016 cumulative IPC: 0.296597 (Simulation time: 3 hr 50 min 47 sec) 
Heartbeat CPU 0 instructions: 1160000003 cycles: 3332209466 heartbeat IPC: 0.219296 cumulative IPC: 0.295512 (Simulation time: 3 hr 53 min 55 sec) 
Heartbeat CPU 0 instructions: 1170000002 cycles: 3377974812 heartbeat IPC: 0.218506 cumulative IPC: 0.294442 (Simulation time: 3 hr 57 min 4 sec) 
Heartbeat CPU 0 instructions: 1180000002 cycles: 3423582058 heartbeat IPC: 0.219263 cumulative IPC: 0.293416 (Simulation time: 4 hr 0 min 15 sec) 
Heartbeat CPU 0 instructions: 1190000003 cycles: 3469166284 heartbeat IPC: 0.219374 cumulative IPC: 0.292419 (Simulation time: 4 hr 3 min 24 sec) 
Heartbeat CPU 0 instructions: 1200000001 cycles: 3514773758 heartbeat IPC: 0.219262 cumulative IPC: 0.291446 (Simulation time: 4 hr 6 min 35 sec) 
Finished CPU 0 instructions: 1000000000 cycles: 3431163881 cumulative IPC: 0.291446 (Simulation time: 4 hr 6 min 35 sec) 

ChampSim completed all CPUs

Region of Interest Statistics

CPU 0 cumulative IPC: 0.291446 instructions: 1000000000 cycles: 3431163881
cpu0_DTLB TOTAL     ACCESS:  298266492  HIT:  292285791  MISS:    5980701
cpu0_DTLB LOAD      ACCESS:  236107976  HIT:  230222066  MISS:    5885910
cpu0_DTLB RFO       ACCESS:   62158516  HIT:   62063725  MISS:      94791
cpu0_DTLB PREFETCH  ACCESS:          0  HIT:          0  MISS:          0
cpu0_DTLB WRITEBACK ACCESS:          0  HIT:          0  MISS:          0
cpu0_DTLB TRANSLATION ACCESS:          0  HIT:          0  MISS:          0
cpu0_DTLB PREFETCH  REQUESTED:          0  ISSUED:          0  USEFUL:          0  USELESS:          0
cpu0_DTLB AVERAGE MISS LATENCY: 48.3656 cycles
cpu0_ITLB TOTAL     ACCESS:   14768699  HIT:   14768663  MISS:         36
cpu0_ITLB LOAD      ACCESS:   14768699  HIT:   14768663  MISS:         36
cpu0_ITLB RFO       ACCESS:          0  HIT:          0  MISS:          0
cpu0_ITLB PREFETCH  ACCESS:          0  HIT:          0  MISS:          0
cpu0_ITLB WRITEBACK ACCESS:          0  HIT:          0  MISS:          0
cpu0_ITLB TRANSLATION ACCESS:          0  HIT:          0  MISS:          0
cpu0_ITLB PREFETCH  REQUESTED:          0  ISSUED:          0  USEFUL:          0  USELESS:          0
cpu0_ITLB AVERAGE MISS LATENCY: 292.25 cycles
cpu0_L1I TOTAL     ACCESS:   37081791  HIT:   37079849  MISS:       1942
cpu0_L1I LOAD      ACCESS:   37081791  HIT:   37079849  MISS:       1942
cpu0_L1I RFO       ACCESS:          0  HIT:          0  MISS:          0
cpu0_L1I PREFETCH  ACCESS:          0  HIT:          0  MISS:          0
cpu0_L1I WRITEBACK ACCESS:          0  HIT:          0  MISS:          0
cpu0_L1I TRANSLATION ACCESS:          0  HIT:          0  MISS:          0
cpu0_L1I PREFETCH  REQUESTED:          0  ISSUED:          0  USEFUL:          0  USELESS:          0
cpu0_L1I AVERAGE MISS LATENCY: 394.507 cycles
cpu0_STLB TOTAL     ACCESS:    5980737  HIT:    4293324  MISS:    1687413
cpu0_STLB LOAD      ACCESS:    5885946  HIT:    4201831  MISS:    1684115
cpu0_STLB RFO       ACCESS:      94791  HIT:      91493  MISS:       3298
cpu0_STLB PREFETCH  ACCESS:          0  HIT:          0  MISS:          0
cpu0_STLB WRITEBACK ACCESS:          0  HIT:          0  MISS:          0
cpu0_STLB TRANSLATION ACCESS:          0  HIT:          0  MISS:          0
cpu0_STLB PREFETCH  REQUESTED:          0  ISSUED:          0  USEFUL:          0  USELESS:          0
cpu0_STLB AVERAGE MISS LATENCY: 138.954 cycles
cpu0_L1D TOTAL     ACCESS:  278207756  HIT:  237912702  MISS:   40295054
cpu0_L1D LOAD      ACCESS:  171472297  HIT:  131521501  MISS:   39950796
cpu0_L1D RFO       ACCESS:  105206026  HIT:  104940575  MISS:     265451
cpu0_L1D PREFETCH  ACCESS:          0  HIT:          0  MISS:          0
cpu0_L1D WRITEBACK ACCESS:          0  HIT:          0  MISS:          0
cpu0_L1D TRANSLATION ACCESS:    1529433  HIT:    1450626  MISS:      78807
cpu0_L1D PREFETCH  REQUESTED:          0  ISSUED:          0  USEFUL:          0  USELESS:          0
cpu0_L1D AVERAGE MISS LATENCY: 654.743 cycles
cpu0_L2C TOTAL     ACCESS:   54147909  HIT:   24524388  MISS:   29623521
cpu0_L2C LOAD      ACCESS:   39952738  HIT:   10569639  MISS:   29383099
cpu0_L2C RFO       ACCESS:     265451  HIT:      27990  MISS:     237461
cpu0_L2C PREFETCH  ACCESS:          0  HIT:          0  MISS:          0
cpu0_L2C WRITEBACK ACCESS:   13850913  HIT:   13849924  MISS:        989
cpu0_L2C TRANSLATION ACCESS:      78807  HIT:      76835  MISS:       1972
cpu0_L2C PREFETCH  REQUESTED:          0  ISSUED:          0  USEFUL:          0  USELESS:          0
cpu0_L2C AVERAGE MISS LATENCY: 875.516 cycles
LLC TOTAL     ACCESS:   41761750  HIT:     130117  MISS:   41631633
LLC LOAD      ACCESS:   29383090  HIT:      86552  MISS:   29296538
LLC RFO       ACCESS:     237461  HIT:       5428  MISS:     232033
LLC PREFETCH  ACCESS:          0  HIT:          0  MISS:          0
LLC WRITEBACK ACCESS:   12139227  HIT:      38015  MISS:   12101212
LLC TRANSLATION ACCESS:       1972  HIT:        122  MISS:       1850
LLC PREFETCH  REQUESTED:          0  ISSUED:          0  USEFUL:          0  USELESS:          0
LLC AVERAGE MISS LATENCY: 608.042 cycles

DRAM Statistics
 CHANNEL 0
 RQ ROW_BUFFER_HIT:     212745  ROW_BUFFER_MISS:   29316042
 DBUS AVG_CONGESTED_CYCLE:     3.9968
 WQ ROW_BUFFER_HIT:     248838  ROW_BUFFER_MISS:   11876559  FULL:       4928


CPU 0 Branch Prediction Accuracy: 96.3002% MPKI: 0.821523 Average ROB Occupancy at Mispredict: 249.689
Branch type MPKI
BRANCH_DIRECT_JUMP: 7.1e-05
BRANCH_INDIRECT: 1e-06
BRANCH_CONDITIONAL: 0.821312
BRANCH_DIRECT_CALL: 7e-05
BRANCH_INDIRECT_CALL: 0
BRANCH_RETURN: 6.9e-05

