
*** ChampSim Multicore Out-of-Order Simulator ***

Warmup Instructions: 200000000
Simulation Instructions: 1000000000
Number of CPUs: 1
Off-chip DRAM Size: 4 GiB Channels: 1 Width: 64-bit Data Rate: 3200 MT/s

VirtualMemory physical capacity: 8588881920 num_ppages: 2096895
VirtualMemory page size: 4096 log2_page_size: 12

CPU 0 runs astar_23B.trace.xz
CPU 0 Bimodal branch predictor
Basic BTB sets: 1024 ways: 8 indirect buffer size: 4096 RAS size: 64
Initialize LRU-eye replacement policy state
Finished initializing Hawkeye replacement policy state
Heartbeat CPU 0 instructions: 10000002 cycles: 2670768 heartbeat IPC: 3.74424 cumulative IPC: 3.74424 (Simulation time: 0 hr 0 min 26 sec) 
Heartbeat CPU 0 instructions: 20000000 cycles: 5350550 heartbeat IPC: 3.73165 cumulative IPC: 3.73793 (Simulation time: 0 hr 0 min 53 sec) 
Heartbeat CPU 0 instructions: 30000001 cycles: 8019797 heartbeat IPC: 3.74638 cumulative IPC: 3.74074 (Simulation time: 0 hr 1 min 21 sec) 
Heartbeat CPU 0 instructions: 40000002 cycles: 10676669 heartbeat IPC: 3.76382 cumulative IPC: 3.74649 (Simulation time: 0 hr 1 min 48 sec) 
Heartbeat CPU 0 instructions: 50000004 cycles: 13374177 heartbeat IPC: 3.70713 cumulative IPC: 3.73855 (Simulation time: 0 hr 2 min 15 sec) 
Heartbeat CPU 0 instructions: 60000003 cycles: 16093998 heartbeat IPC: 3.67671 cumulative IPC: 3.7281 (Simulation time: 0 hr 2 min 41 sec) 
Heartbeat CPU 0 instructions: 70000003 cycles: 18760586 heartbeat IPC: 3.75011 cumulative IPC: 3.73123 (Simulation time: 0 hr 3 min 6 sec) 
Heartbeat CPU 0 instructions: 80000001 cycles: 21441011 heartbeat IPC: 3.73075 cumulative IPC: 3.73117 (Simulation time: 0 hr 3 min 32 sec) 
Heartbeat CPU 0 instructions: 90000003 cycles: 24140142 heartbeat IPC: 3.7049 cumulative IPC: 3.72823 (Simulation time: 0 hr 3 min 59 sec) 
Heartbeat CPU 0 instructions: 100000003 cycles: 26802686 heartbeat IPC: 3.75581 cumulative IPC: 3.73097 (Simulation time: 0 hr 4 min 24 sec) 
Heartbeat CPU 0 instructions: 110000002 cycles: 29478371 heartbeat IPC: 3.73736 cumulative IPC: 3.73155 (Simulation time: 0 hr 4 min 50 sec) 
Heartbeat CPU 0 instructions: 120000002 cycles: 32139571 heartbeat IPC: 3.7577 cumulative IPC: 3.73372 (Simulation time: 0 hr 5 min 15 sec) 
Heartbeat CPU 0 instructions: 130000004 cycles: 34830928 heartbeat IPC: 3.7156 cumulative IPC: 3.73232 (Simulation time: 0 hr 5 min 42 sec) 
Heartbeat CPU 0 instructions: 140000000 cycles: 37504134 heartbeat IPC: 3.74083 cumulative IPC: 3.73292 (Simulation time: 0 hr 6 min 7 sec) 
Heartbeat CPU 0 instructions: 150000002 cycles: 40174740 heartbeat IPC: 3.74447 cumulative IPC: 3.73369 (Simulation time: 0 hr 6 min 33 sec) 
Heartbeat CPU 0 instructions: 160000002 cycles: 42838447 heartbeat IPC: 3.75417 cumulative IPC: 3.73496 (Simulation time: 0 hr 6 min 59 sec) 
Heartbeat CPU 0 instructions: 170000002 cycles: 45537470 heartbeat IPC: 3.70504 cumulative IPC: 3.73319 (Simulation time: 0 hr 7 min 25 sec) 
Heartbeat CPU 0 instructions: 180000001 cycles: 48202325 heartbeat IPC: 3.75255 cumulative IPC: 3.73426 (Simulation time: 0 hr 7 min 51 sec) 
Heartbeat CPU 0 instructions: 190000000 cycles: 50882431 heartbeat IPC: 3.7312 cumulative IPC: 3.7341 (Simulation time: 0 hr 8 min 18 sec) 
Heartbeat CPU 0 instructions: 200000001 cycles: 53532855 heartbeat IPC: 3.77298 cumulative IPC: 3.73602 (Simulation time: 0 hr 8 min 44 sec) 

Warmup complete CPU 0 instructions: 200000001 cycles: 53532855 (Simulation time: 0 hr 8 min 44 sec) 

Heartbeat CPU 0 instructions: 210000003 cycles: 77065045 heartbeat IPC: 0.42495 cumulative IPC: 0.42495 (Simulation time: 0 hr 9 min 10 sec) 
Heartbeat CPU 0 instructions: 220000004 cycles: 100489936 heartbeat IPC: 0.426896 cumulative IPC: 0.425921 (Simulation time: 0 hr 9 min 37 sec) 
Heartbeat CPU 0 instructions: 230000004 cycles: 123563488 heartbeat IPC: 0.433397 cumulative IPC: 0.428384 (Simulation time: 0 hr 10 min 3 sec) 
Heartbeat CPU 0 instructions: 240000001 cycles: 147274852 heartbeat IPC: 0.421739 cumulative IPC: 0.426703 (Simulation time: 0 hr 10 min 31 sec) 
Heartbeat CPU 0 instructions: 250000001 cycles: 170295174 heartbeat IPC: 0.434399 cumulative IPC: 0.42822 (Simulation time: 0 hr 10 min 58 sec) 
Heartbeat CPU 0 instructions: 260000001 cycles: 194228204 heartbeat IPC: 0.417833 cumulative IPC: 0.426453 (Simulation time: 0 hr 11 min 25 sec) 
Heartbeat CPU 0 instructions: 270000001 cycles: 218456271 heartbeat IPC: 0.412744 cumulative IPC: 0.424439 (Simulation time: 0 hr 11 min 51 sec) 
Heartbeat CPU 0 instructions: 280000003 cycles: 242735177 heartbeat IPC: 0.41188 cumulative IPC: 0.422828 (Simulation time: 0 hr 12 min 19 sec) 
Heartbeat CPU 0 instructions: 290000003 cycles: 266461375 heartbeat IPC: 0.421475 cumulative IPC: 0.422677 (Simulation time: 0 hr 12 min 45 sec) 
Heartbeat CPU 0 instructions: 300000000 cycles: 289105151 heartbeat IPC: 0.441622 cumulative IPC: 0.424498 (Simulation time: 0 hr 13 min 11 sec) 
Heartbeat CPU 0 instructions: 310000000 cycles: 312032161 heartbeat IPC: 0.436167 cumulative IPC: 0.425533 (Simulation time: 0 hr 13 min 37 sec) 
Heartbeat CPU 0 instructions: 320000000 cycles: 334848097 heartbeat IPC: 0.43829 cumulative IPC: 0.426568 (Simulation time: 0 hr 14 min 3 sec) 
Heartbeat CPU 0 instructions: 330000000 cycles: 358976194 heartbeat IPC: 0.414455 cumulative IPC: 0.425611 (Simulation time: 0 hr 14 min 30 sec) 
Heartbeat CPU 0 instructions: 340000000 cycles: 380695825 heartbeat IPC: 0.460413 cumulative IPC: 0.427921 (Simulation time: 0 hr 14 min 55 sec) 
Heartbeat CPU 0 instructions: 350000000 cycles: 402897959 heartbeat IPC: 0.450407 cumulative IPC: 0.42935 (Simulation time: 0 hr 15 min 21 sec) 
Heartbeat CPU 0 instructions: 360000000 cycles: 426481806 heartbeat IPC: 0.424019 cumulative IPC: 0.429013 (Simulation time: 0 hr 15 min 47 sec) 
Heartbeat CPU 0 instructions: 370000003 cycles: 449509955 heartbeat IPC: 0.434251 cumulative IPC: 0.429318 (Simulation time: 0 hr 16 min 13 sec) 
Heartbeat CPU 0 instructions: 380000004 cycles: 473230611 heartbeat IPC: 0.421574 cumulative IPC: 0.42888 (Simulation time: 0 hr 16 min 40 sec) 
Heartbeat CPU 0 instructions: 390000000 cycles: 498268392 heartbeat IPC: 0.399396 cumulative IPC: 0.42722 (Simulation time: 0 hr 17 min 9 sec) 
Heartbeat CPU 0 instructions: 400000000 cycles: 522585230 heartbeat IPC: 0.411238 cumulative IPC: 0.426392 (Simulation time: 0 hr 17 min 36 sec) 
Heartbeat CPU 0 instructions: 410000000 cycles: 545473623 heartbeat IPC: 0.436903 cumulative IPC: 0.426881 (Simulation time: 0 hr 18 min 2 sec) 
Heartbeat CPU 0 instructions: 420000000 cycles: 568197118 heartbeat IPC: 0.440073 cumulative IPC: 0.427463 (Simulation time: 0 hr 18 min 28 sec) 
Heartbeat CPU 0 instructions: 430000000 cycles: 591255071 heartbeat IPC: 0.43369 cumulative IPC: 0.42773 (Simulation time: 0 hr 18 min 54 sec) 
Heartbeat CPU 0 instructions: 440000004 cycles: 613395203 heartbeat IPC: 0.451669 cumulative IPC: 0.428677 (Simulation time: 0 hr 19 min 20 sec) 
Heartbeat CPU 0 instructions: 450000000 cycles: 636897212 heartbeat IPC: 0.425495 cumulative IPC: 0.428549 (Simulation time: 0 hr 19 min 46 sec) 
Heartbeat CPU 0 instructions: 460000001 cycles: 660071319 heartbeat IPC: 0.431516 cumulative IPC: 0.428662 (Simulation time: 0 hr 20 min 13 sec) 
Heartbeat CPU 0 instructions: 470000002 cycles: 683498156 heartbeat IPC: 0.426861 cumulative IPC: 0.428595 (Simulation time: 0 hr 20 min 39 sec) 
Heartbeat CPU 0 instructions: 480000001 cycles: 707664414 heartbeat IPC: 0.4138 cumulative IPC: 0.428048 (Simulation time: 0 hr 21 min 8 sec) 
Heartbeat CPU 0 instructions: 490000004 cycles: 731930332 heartbeat IPC: 0.412101 cumulative IPC: 0.427478 (Simulation time: 0 hr 21 min 35 sec) 
Heartbeat CPU 0 instructions: 500000000 cycles: 756304707 heartbeat IPC: 0.410267 cumulative IPC: 0.426881 (Simulation time: 0 hr 22 min 1 sec) 
Heartbeat CPU 0 instructions: 510000000 cycles: 780718012 heartbeat IPC: 0.409613 cumulative IPC: 0.426301 (Simulation time: 0 hr 22 min 28 sec) 
Heartbeat CPU 0 instructions: 520000000 cycles: 802387110 heartbeat IPC: 0.461487 cumulative IPC: 0.427319 (Simulation time: 0 hr 22 min 54 sec) 
Heartbeat CPU 0 instructions: 530000001 cycles: 826116681 heartbeat IPC: 0.421415 cumulative IPC: 0.427138 (Simulation time: 0 hr 23 min 20 sec) 
Heartbeat CPU 0 instructions: 540000000 cycles: 848820108 heartbeat IPC: 0.440462 cumulative IPC: 0.427518 (Simulation time: 0 hr 23 min 46 sec) 
Heartbeat CPU 0 instructions: 550000000 cycles: 871267695 heartbeat IPC: 0.445482 cumulative IPC: 0.428012 (Simulation time: 0 hr 24 min 14 sec) 
Heartbeat CPU 0 instructions: 560000002 cycles: 892219071 heartbeat IPC: 0.477296 cumulative IPC: 0.429243 (Simulation time: 0 hr 24 min 42 sec) 
Heartbeat CPU 0 instructions: 570000002 cycles: 915614962 heartbeat IPC: 0.427425 cumulative IPC: 0.429193 (Simulation time: 0 hr 25 min 13 sec) 
Heartbeat CPU 0 instructions: 580000002 cycles: 939266289 heartbeat IPC: 0.422809 cumulative IPC: 0.429023 (Simulation time: 0 hr 25 min 45 sec) 
Heartbeat CPU 0 instructions: 590000000 cycles: 962930701 heartbeat IPC: 0.422575 cumulative IPC: 0.428855 (Simulation time: 0 hr 26 min 18 sec) 
Heartbeat CPU 0 instructions: 600000000 cycles: 986222862 heartbeat IPC: 0.429329 cumulative IPC: 0.428867 (Simulation time: 0 hr 26 min 48 sec) 
Heartbeat CPU 0 instructions: 610000000 cycles: 1009550993 heartbeat IPC: 0.428667 cumulative IPC: 0.428862 (Simulation time: 0 hr 27 min 20 sec) 
Heartbeat CPU 0 instructions: 620000003 cycles: 1032853154 heartbeat IPC: 0.429145 cumulative IPC: 0.428869 (Simulation time: 0 hr 27 min 53 sec) 
Heartbeat CPU 0 instructions: 630000000 cycles: 1056812201 heartbeat IPC: 0.417379 cumulative IPC: 0.428594 (Simulation time: 0 hr 28 min 25 sec) 
Heartbeat CPU 0 instructions: 640000000 cycles: 1080776990 heartbeat IPC: 0.417279 cumulative IPC: 0.428331 (Simulation time: 0 hr 28 min 54 sec) 
Heartbeat CPU 0 instructions: 650000000 cycles: 1103528788 heartbeat IPC: 0.439526 cumulative IPC: 0.428573 (Simulation time: 0 hr 29 min 20 sec) 
Heartbeat CPU 0 instructions: 660000000 cycles: 1126250718 heartbeat IPC: 0.440103 cumulative IPC: 0.428817 (Simulation time: 0 hr 29 min 45 sec) 
Heartbeat CPU 0 instructions: 670000002 cycles: 1150383488 heartbeat IPC: 0.414374 cumulative IPC: 0.4285 (Simulation time: 0 hr 30 min 11 sec) 
Heartbeat CPU 0 instructions: 680000001 cycles: 1175182988 heartbeat IPC: 0.403234 cumulative IPC: 0.427941 (Simulation time: 0 hr 30 min 39 sec) 
Heartbeat CPU 0 instructions: 690000000 cycles: 1199623409 heartbeat IPC: 0.409158 cumulative IPC: 0.42754 (Simulation time: 0 hr 31 min 6 sec) 
Heartbeat CPU 0 instructions: 700000000 cycles: 1225133941 heartbeat IPC: 0.391995 cumulative IPC: 0.426766 (Simulation time: 0 hr 31 min 34 sec) 
Heartbeat CPU 0 instructions: 710000004 cycles: 1248958713 heartbeat IPC: 0.419731 cumulative IPC: 0.426626 (Simulation time: 0 hr 32 min 0 sec) 
Heartbeat CPU 0 instructions: 720000002 cycles: 1272367744 heartbeat IPC: 0.427185 cumulative IPC: 0.426637 (Simulation time: 0 hr 32 min 28 sec) 
Heartbeat CPU 0 instructions: 730000004 cycles: 1295273786 heartbeat IPC: 0.436566 cumulative IPC: 0.42682 (Simulation time: 0 hr 32 min 54 sec) 
Heartbeat CPU 0 instructions: 740000002 cycles: 1319526958 heartbeat IPC: 0.412317 cumulative IPC: 0.426542 (Simulation time: 0 hr 33 min 20 sec) 
Heartbeat CPU 0 instructions: 750000004 cycles: 1342983641 heartbeat IPC: 0.426318 cumulative IPC: 0.426538 (Simulation time: 0 hr 33 min 47 sec) 
Heartbeat CPU 0 instructions: 760000004 cycles: 1367170879 heartbeat IPC: 0.413441 cumulative IPC: 0.426297 (Simulation time: 0 hr 34 min 14 sec) 
Heartbeat CPU 0 instructions: 770000000 cycles: 1392123539 heartbeat IPC: 0.400759 cumulative IPC: 0.425821 (Simulation time: 0 hr 34 min 42 sec) 
Heartbeat CPU 0 instructions: 780000003 cycles: 1416442842 heartbeat IPC: 0.411196 cumulative IPC: 0.42556 (Simulation time: 0 hr 35 min 8 sec) 
Heartbeat CPU 0 instructions: 790000002 cycles: 1439398602 heartbeat IPC: 0.43562 cumulative IPC: 0.425727 (Simulation time: 0 hr 35 min 34 sec) 
Heartbeat CPU 0 instructions: 800000001 cycles: 1462418965 heartbeat IPC: 0.434398 cumulative IPC: 0.425868 (Simulation time: 0 hr 36 min 0 sec) 
Heartbeat CPU 0 instructions: 810000000 cycles: 1485676630 heartbeat IPC: 0.429966 cumulative IPC: 0.425935 (Simulation time: 0 hr 36 min 26 sec) 
Heartbeat CPU 0 instructions: 820000004 cycles: 1509081118 heartbeat IPC: 0.427269 cumulative IPC: 0.425956 (Simulation time: 0 hr 36 min 53 sec) 
Heartbeat CPU 0 instructions: 830000000 cycles: 1532606712 heartbeat IPC: 0.425069 cumulative IPC: 0.425942 (Simulation time: 0 hr 37 min 19 sec) 
Heartbeat CPU 0 instructions: 840000000 cycles: 1555485871 heartbeat IPC: 0.437079 cumulative IPC: 0.426112 (Simulation time: 0 hr 37 min 46 sec) 
Heartbeat CPU 0 instructions: 850000000 cycles: 1579687110 heartbeat IPC: 0.413202 cumulative IPC: 0.425907 (Simulation time: 0 hr 38 min 15 sec) 
Heartbeat CPU 0 instructions: 860000004 cycles: 1604008776 heartbeat IPC: 0.411156 cumulative IPC: 0.425676 (Simulation time: 0 hr 38 min 44 sec) 
Heartbeat CPU 0 instructions: 870000003 cycles: 1628205808 heartbeat IPC: 0.413274 cumulative IPC: 0.425485 (Simulation time: 0 hr 39 min 9 sec) 
Heartbeat CPU 0 instructions: 880000000 cycles: 1651765563 heartbeat IPC: 0.424453 cumulative IPC: 0.42547 (Simulation time: 0 hr 39 min 36 sec) 
Heartbeat CPU 0 instructions: 890000000 cycles: 1674289192 heartbeat IPC: 0.443978 cumulative IPC: 0.425727 (Simulation time: 0 hr 40 min 1 sec) 
Heartbeat CPU 0 instructions: 900000003 cycles: 1697386113 heartbeat IPC: 0.432958 cumulative IPC: 0.425829 (Simulation time: 0 hr 40 min 27 sec) 
Heartbeat CPU 0 instructions: 910000002 cycles: 1721783138 heartbeat IPC: 0.409886 cumulative IPC: 0.425596 (Simulation time: 0 hr 40 min 55 sec) 
Heartbeat CPU 0 instructions: 920000000 cycles: 1745269835 heartbeat IPC: 0.425773 cumulative IPC: 0.425598 (Simulation time: 0 hr 41 min 21 sec) 
Heartbeat CPU 0 instructions: 930000000 cycles: 1768916661 heartbeat IPC: 0.42289 cumulative IPC: 0.425561 (Simulation time: 0 hr 41 min 47 sec) 
Heartbeat CPU 0 instructions: 940000001 cycles: 1792802179 heartbeat IPC: 0.418664 cumulative IPC: 0.425466 (Simulation time: 0 hr 42 min 14 sec) 
Heartbeat CPU 0 instructions: 950000003 cycles: 1816902001 heartbeat IPC: 0.414941 cumulative IPC: 0.425322 (Simulation time: 0 hr 42 min 41 sec) 
Heartbeat CPU 0 instructions: 960000000 cycles: 1842189496 heartbeat IPC: 0.395452 cumulative IPC: 0.4249 (Simulation time: 0 hr 43 min 9 sec) 
Heartbeat CPU 0 instructions: 970000000 cycles: 1866228296 heartbeat IPC: 0.415994 cumulative IPC: 0.424782 (Simulation time: 0 hr 43 min 35 sec) 
Heartbeat CPU 0 instructions: 980000003 cycles: 1890227194 heartbeat IPC: 0.416686 cumulative IPC: 0.424676 (Simulation time: 0 hr 44 min 3 sec) 
Heartbeat CPU 0 instructions: 990000002 cycles: 1914853402 heartbeat IPC: 0.406071 cumulative IPC: 0.42443 (Simulation time: 0 hr 44 min 31 sec) 
*** Reached end of trace: astar_23B.trace.xz
Heartbeat CPU 0 instructions: 1000000002 cycles: 1937672807 heartbeat IPC: 0.438224 cumulative IPC: 0.424597 (Simulation time: 0 hr 44 min 58 sec) 
Heartbeat CPU 0 instructions: 1010000000 cycles: 1961498230 heartbeat IPC: 0.41972 cumulative IPC: 0.424536 (Simulation time: 0 hr 45 min 24 sec) 
Heartbeat CPU 0 instructions: 1020000003 cycles: 1984286536 heartbeat IPC: 0.438822 cumulative IPC: 0.424705 (Simulation time: 0 hr 45 min 51 sec) 
Heartbeat CPU 0 instructions: 1030000000 cycles: 2008394613 heartbeat IPC: 0.414799 cumulative IPC: 0.424582 (Simulation time: 0 hr 46 min 19 sec) 
Heartbeat CPU 0 instructions: 1040000002 cycles: 2032770284 heartbeat IPC: 0.410245 cumulative IPC: 0.424406 (Simulation time: 0 hr 46 min 46 sec) 
Heartbeat CPU 0 instructions: 1050000002 cycles: 2056899007 heartbeat IPC: 0.414444 cumulative IPC: 0.424286 (Simulation time: 0 hr 47 min 13 sec) 
Heartbeat CPU 0 instructions: 1060000000 cycles: 2081430333 heartbeat IPC: 0.407642 cumulative IPC: 0.424085 (Simulation time: 0 hr 47 min 39 sec) 
Heartbeat CPU 0 instructions: 1070000000 cycles: 2104311448 heartbeat IPC: 0.437042 cumulative IPC: 0.424229 (Simulation time: 0 hr 48 min 6 sec) 
Heartbeat CPU 0 instructions: 1080000000 cycles: 2128373655 heartbeat IPC: 0.415589 cumulative IPC: 0.424129 (Simulation time: 0 hr 48 min 33 sec) 
Heartbeat CPU 0 instructions: 1090000004 cycles: 2152611101 heartbeat IPC: 0.412585 cumulative IPC: 0.423996 (Simulation time: 0 hr 48 min 59 sec) 
Heartbeat CPU 0 instructions: 1100000002 cycles: 2175882752 heartbeat IPC: 0.429707 cumulative IPC: 0.424058 (Simulation time: 0 hr 49 min 26 sec) 
Heartbeat CPU 0 instructions: 1110000003 cycles: 2199707449 heartbeat IPC: 0.419733 cumulative IPC: 0.42401 (Simulation time: 0 hr 49 min 53 sec) 
Heartbeat CPU 0 instructions: 1120000003 cycles: 2223737470 heartbeat IPC: 0.416146 cumulative IPC: 0.423923 (Simulation time: 0 hr 50 min 21 sec) 
Heartbeat CPU 0 instructions: 1130000000 cycles: 2248585664 heartbeat IPC: 0.402444 cumulative IPC: 0.42368 (Simulation time: 0 hr 50 min 47 sec) 
Heartbeat CPU 0 instructions: 1140000000 cycles: 2273212784 heartbeat IPC: 0.406056 cumulative IPC: 0.423484 (Simulation time: 0 hr 51 min 15 sec) 
Heartbeat CPU 0 instructions: 1150000000 cycles: 2297150121 heartbeat IPC: 0.417757 cumulative IPC: 0.423423 (Simulation time: 0 hr 51 min 43 sec) 
Heartbeat CPU 0 instructions: 1160000000 cycles: 2320915957 heartbeat IPC: 0.420772 cumulative IPC: 0.423396 (Simulation time: 0 hr 52 min 10 sec) 
Heartbeat CPU 0 instructions: 1170000000 cycles: 2344676637 heartbeat IPC: 0.420863 cumulative IPC: 0.423369 (Simulation time: 0 hr 52 min 37 sec) 
Heartbeat CPU 0 instructions: 1180000000 cycles: 2367131584 heartbeat IPC: 0.445336 cumulative IPC: 0.423583 (Simulation time: 0 hr 53 min 4 sec) 
Heartbeat CPU 0 instructions: 1190000000 cycles: 2390399515 heartbeat IPC: 0.429776 cumulative IPC: 0.423644 (Simulation time: 0 hr 53 min 31 sec) 
Heartbeat CPU 0 instructions: 1200000001 cycles: 2412870023 heartbeat IPC: 0.445028 cumulative IPC: 0.423848 (Simulation time: 0 hr 53 min 58 sec) 
Finished CPU 0 instructions: 1000000000 cycles: 2359337168 cumulative IPC: 0.423848 (Simulation time: 0 hr 53 min 58 sec) 

ChampSim completed all CPUs

Region of Interest Statistics

CPU 0 cumulative IPC: 0.423848 instructions: 1000000000 cycles: 2359337168
cpu0_DTLB TOTAL     ACCESS:  240374440  HIT:  216491071  MISS:   23883369
cpu0_DTLB LOAD      ACCESS:  212564291  HIT:  191555053  MISS:   21009238
cpu0_DTLB RFO       ACCESS:   27810149  HIT:   24936018  MISS:    2874131
cpu0_DTLB PREFETCH  ACCESS:          0  HIT:          0  MISS:          0
cpu0_DTLB WRITEBACK ACCESS:          0  HIT:          0  MISS:          0
cpu0_DTLB TRANSLATION ACCESS:          0  HIT:          0  MISS:          0
cpu0_DTLB PREFETCH  REQUESTED:          0  ISSUED:          0  USEFUL:          0  USELESS:          0
cpu0_DTLB AVERAGE MISS LATENCY: 10.4268 cycles
cpu0_ITLB TOTAL     ACCESS:  128030225  HIT:  128030225  MISS:          0
cpu0_ITLB LOAD      ACCESS:  128030225  HIT:  128030225  MISS:          0
cpu0_ITLB RFO       ACCESS:          0  HIT:          0  MISS:          0
cpu0_ITLB PREFETCH  ACCESS:          0  HIT:          0  MISS:          0
cpu0_ITLB WRITEBACK ACCESS:          0  HIT:          0  MISS:          0
cpu0_ITLB TRANSLATION ACCESS:          0  HIT:          0  MISS:          0
cpu0_ITLB PREFETCH  REQUESTED:          0  ISSUED:          0  USEFUL:          0  USELESS:          0
cpu0_ITLB AVERAGE MISS LATENCY: nan cycles
cpu0_L1I TOTAL     ACCESS:      72125  HIT:      72121  MISS:          4
cpu0_L1I LOAD      ACCESS:      72125  HIT:      72121  MISS:          4
cpu0_L1I RFO       ACCESS:          0  HIT:          0  MISS:          0
cpu0_L1I PREFETCH  ACCESS:          0  HIT:          0  MISS:          0
cpu0_L1I WRITEBACK ACCESS:          0  HIT:          0  MISS:          0
cpu0_L1I TRANSLATION ACCESS:          0  HIT:          0  MISS:          0
cpu0_L1I PREFETCH  REQUESTED:          0  ISSUED:          0  USEFUL:          0  USELESS:          0
cpu0_L1I AVERAGE MISS LATENCY: 194.25 cycles
cpu0_STLB TOTAL     ACCESS:   23883369  HIT:   19653775  MISS:    4229594
cpu0_STLB LOAD      ACCESS:   21009238  HIT:   17444508  MISS:    3564730
cpu0_STLB RFO       ACCESS:    2874131  HIT:    2209267  MISS:     664864
cpu0_STLB PREFETCH  ACCESS:          0  HIT:          0  MISS:          0
cpu0_STLB WRITEBACK ACCESS:          0  HIT:          0  MISS:          0
cpu0_STLB TRANSLATION ACCESS:          0  HIT:          0  MISS:          0
cpu0_STLB PREFETCH  REQUESTED:          0  ISSUED:          0  USEFUL:          0  USELESS:          0
cpu0_STLB AVERAGE MISS LATENCY: 7.99091 cycles
cpu0_L1D TOTAL     ACCESS:  265171009  HIT:  236285005  MISS:   28886004
cpu0_L1D LOAD      ACCESS:  218150017  HIT:  189610838  MISS:   28539179
cpu0_L1D RFO       ACCESS:   42911920  HIT:   42576905  MISS:     335015
cpu0_L1D PREFETCH  ACCESS:          0  HIT:          0  MISS:          0
cpu0_L1D WRITEBACK ACCESS:          0  HIT:          0  MISS:          0
cpu0_L1D TRANSLATION ACCESS:    4109072  HIT:    4097262  MISS:      11810
cpu0_L1D PREFETCH  REQUESTED:          0  ISSUED:          0  USEFUL:          0  USELESS:          0
cpu0_L1D AVERAGE MISS LATENCY: 33.1708 cycles
cpu0_L2C TOTAL     ACCESS:   38389865  HIT:   27175896  MISS:   11213969
cpu0_L2C LOAD      ACCESS:   28538313  HIT:   17391311  MISS:   11147002
cpu0_L2C RFO       ACCESS:     335002  HIT:     269589  MISS:      65413
cpu0_L2C PREFETCH  ACCESS:          0  HIT:          0  MISS:          0
cpu0_L2C WRITEBACK ACCESS:    9504740  HIT:    9504013  MISS:        727
cpu0_L2C TRANSLATION ACCESS:      11810  HIT:      10983  MISS:        827
cpu0_L2C PREFETCH  REQUESTED:          0  ISSUED:          0  USEFUL:          0  USELESS:          0
cpu0_L2C AVERAGE MISS LATENCY: 57.0585 cycles
LLC TOTAL     ACCESS:   15319099  HIT:   12988293  MISS:    2330806
LLC LOAD      ACCESS:   11145442  HIT:    8820091  MISS:    2325351
LLC RFO       ACCESS:      65405  HIT:      61731  MISS:       3674
LLC PREFETCH  ACCESS:          0  HIT:          0  MISS:          0
LLC WRITEBACK ACCESS:    4107425  HIT:    4105772  MISS:       1653
LLC TRANSLATION ACCESS:        827  HIT:        699  MISS:        128
LLC PREFETCH  REQUESTED:          0  ISSUED:          0  USEFUL:          0  USELESS:          0
LLC AVERAGE MISS LATENCY: 173.505 cycles

DRAM Statistics
 CHANNEL 0
 RQ ROW_BUFFER_HIT:       3705  ROW_BUFFER_MISS:    2324503
 DBUS AVG_CONGESTED_CYCLE:    3.54655
 WQ ROW_BUFFER_HIT:      77404  ROW_BUFFER_MISS:    1345515  FULL:          0


CPU 0 Branch Prediction Accuracy: 69.3103% MPKI: 58.5696 Average ROB Occupancy at Mispredict: 5.1165
Branch type MPKI
BRANCH_DIRECT_JUMP: 5e-06
BRANCH_INDIRECT: 0
BRANCH_CONDITIONAL: 58.5696
BRANCH_DIRECT_CALL: 0
BRANCH_INDIRECT_CALL: 0
BRANCH_RETURN: 1e-06

