
*** ChampSim Multicore Out-of-Order Simulator ***

Warmup Instructions: 200000000
Simulation Instructions: 1000000000
Number of CPUs: 1
Off-chip DRAM Size: 4 GiB Channels: 1 Width: 64-bit Data Rate: 3200 MT/s

VirtualMemory physical capacity: 8588881920 num_ppages: 2096895
VirtualMemory page size: 4096 log2_page_size: 12

CPU 0 runs gcc_13B.trace.xz
CPU 0 Bimodal branch predictor
Basic BTB sets: 1024 ways: 8 indirect buffer size: 4096 RAS size: 64
Initialize LRU-eye replacement policy state
Finished initializing Hawkeye replacement policy state
Heartbeat CPU 0 instructions: 10000003 cycles: 2971564 heartbeat IPC: 3.36523 cumulative IPC: 3.36523 (Simulation time: 0 hr 0 min 29 sec) 
Heartbeat CPU 0 instructions: 20000002 cycles: 5721589 heartbeat IPC: 3.63633 cumulative IPC: 3.49553 (Simulation time: 0 hr 0 min 55 sec) 
Heartbeat CPU 0 instructions: 30000003 cycles: 8608802 heartbeat IPC: 3.46355 cumulative IPC: 3.48481 (Simulation time: 0 hr 1 min 22 sec) 
Heartbeat CPU 0 instructions: 40000002 cycles: 11272764 heartbeat IPC: 3.75381 cumulative IPC: 3.54838 (Simulation time: 0 hr 1 min 45 sec) 
Heartbeat CPU 0 instructions: 50000002 cycles: 13772764 heartbeat IPC: 4 cumulative IPC: 3.63035 (Simulation time: 0 hr 2 min 5 sec) 
Heartbeat CPU 0 instructions: 60000002 cycles: 16272764 heartbeat IPC: 4 cumulative IPC: 3.68714 (Simulation time: 0 hr 2 min 25 sec) 
Heartbeat CPU 0 instructions: 70000002 cycles: 18772764 heartbeat IPC: 4 cumulative IPC: 3.72881 (Simulation time: 0 hr 2 min 46 sec) 
Heartbeat CPU 0 instructions: 80000002 cycles: 21272764 heartbeat IPC: 4 cumulative IPC: 3.76068 (Simulation time: 0 hr 3 min 6 sec) 
Heartbeat CPU 0 instructions: 90000002 cycles: 23772764 heartbeat IPC: 4 cumulative IPC: 3.78585 (Simulation time: 0 hr 3 min 26 sec) 
Heartbeat CPU 0 instructions: 100000002 cycles: 26272764 heartbeat IPC: 4 cumulative IPC: 3.80622 (Simulation time: 0 hr 3 min 46 sec) 
Heartbeat CPU 0 instructions: 110000002 cycles: 28772873 heartbeat IPC: 3.99983 cumulative IPC: 3.82305 (Simulation time: 0 hr 4 min 6 sec) 
Heartbeat CPU 0 instructions: 120000003 cycles: 31279264 heartbeat IPC: 3.9898 cumulative IPC: 3.83641 (Simulation time: 0 hr 4 min 25 sec) 
Heartbeat CPU 0 instructions: 130000002 cycles: 33877668 heartbeat IPC: 3.84852 cumulative IPC: 3.83734 (Simulation time: 0 hr 4 min 51 sec) 
Heartbeat CPU 0 instructions: 140000002 cycles: 36391458 heartbeat IPC: 3.97806 cumulative IPC: 3.84706 (Simulation time: 0 hr 5 min 12 sec) 
Heartbeat CPU 0 instructions: 150000003 cycles: 39127025 heartbeat IPC: 3.65555 cumulative IPC: 3.83367 (Simulation time: 0 hr 5 min 37 sec) 
Heartbeat CPU 0 instructions: 160000003 cycles: 41627025 heartbeat IPC: 4 cumulative IPC: 3.84366 (Simulation time: 0 hr 5 min 59 sec) 
Heartbeat CPU 0 instructions: 170000002 cycles: 44222707 heartbeat IPC: 3.85255 cumulative IPC: 3.84418 (Simulation time: 0 hr 6 min 19 sec) 
Heartbeat CPU 0 instructions: 180000003 cycles: 46860001 heartbeat IPC: 3.79177 cumulative IPC: 3.84123 (Simulation time: 0 hr 6 min 43 sec) 
Heartbeat CPU 0 instructions: 190000002 cycles: 49413234 heartbeat IPC: 3.9166 cumulative IPC: 3.84512 (Simulation time: 0 hr 7 min 6 sec) 
Heartbeat CPU 0 instructions: 200000003 cycles: 51972385 heartbeat IPC: 3.90755 cumulative IPC: 3.8482 (Simulation time: 0 hr 7 min 29 sec) 

Warmup complete CPU 0 instructions: 200000003 cycles: 51972385 (Simulation time: 0 hr 7 min 29 sec) 

Heartbeat CPU 0 instructions: 210000001 cycles: 97288125 heartbeat IPC: 0.220674 cumulative IPC: 0.220674 (Simulation time: 0 hr 8 min 33 sec) 
Heartbeat CPU 0 instructions: 220000000 cycles: 138168847 heartbeat IPC: 0.244614 cumulative IPC: 0.232028 (Simulation time: 0 hr 9 min 36 sec) 
Heartbeat CPU 0 instructions: 230000000 cycles: 235372049 heartbeat IPC: 0.102877 cumulative IPC: 0.163577 (Simulation time: 0 hr 16 min 5 sec) 
Heartbeat CPU 0 instructions: 240000002 cycles: 282205285 heartbeat IPC: 0.213524 cumulative IPC: 0.173737 (Simulation time: 0 hr 19 min 35 sec) 
Heartbeat CPU 0 instructions: 250000001 cycles: 319374136 heartbeat IPC: 0.269042 cumulative IPC: 0.186985 (Simulation time: 0 hr 20 min 54 sec) 
Heartbeat CPU 0 instructions: 260000004 cycles: 358347981 heartbeat IPC: 0.256582 cumulative IPC: 0.195838 (Simulation time: 0 hr 21 min 59 sec) 
Heartbeat CPU 0 instructions: 270000002 cycles: 381148749 heartbeat IPC: 0.438582 cumulative IPC: 0.212652 (Simulation time: 0 hr 22 min 39 sec) 
Heartbeat CPU 0 instructions: 280000001 cycles: 404513301 heartbeat IPC: 0.427999 cumulative IPC: 0.226924 (Simulation time: 0 hr 23 min 18 sec) 
Heartbeat CPU 0 instructions: 290000001 cycles: 434558434 heartbeat IPC: 0.332833 cumulative IPC: 0.235241 (Simulation time: 0 hr 24 min 5 sec) 
Heartbeat CPU 0 instructions: 300000000 cycles: 481764993 heartbeat IPC: 0.211835 cumulative IPC: 0.23267 (Simulation time: 0 hr 28 min 0 sec) 
Heartbeat CPU 0 instructions: 310000000 cycles: 532831600 heartbeat IPC: 0.195823 cumulative IPC: 0.228757 (Simulation time: 0 hr 32 min 57 sec) 
Heartbeat CPU 0 instructions: 320000003 cycles: 553488901 heartbeat IPC: 0.48409 cumulative IPC: 0.239274 (Simulation time: 0 hr 33 min 37 sec) 
Heartbeat CPU 0 instructions: 330000001 cycles: 573520421 heartbeat IPC: 0.499213 cumulative IPC: 0.249258 (Simulation time: 0 hr 34 min 18 sec) 
Heartbeat CPU 0 instructions: 340000001 cycles: 594985890 heartbeat IPC: 0.465865 cumulative IPC: 0.25782 (Simulation time: 0 hr 34 min 59 sec) 
Heartbeat CPU 0 instructions: 350000000 cycles: 614165064 heartbeat IPC: 0.521399 cumulative IPC: 0.266812 (Simulation time: 0 hr 35 min 31 sec) 
Heartbeat CPU 0 instructions: 360000004 cycles: 641847124 heartbeat IPC: 0.361245 cumulative IPC: 0.271244 (Simulation time: 0 hr 36 min 39 sec) 
Heartbeat CPU 0 instructions: 370000003 cycles: 671959449 heartbeat IPC: 0.33209 cumulative IPC: 0.274199 (Simulation time: 0 hr 38 min 6 sec) 
Heartbeat CPU 0 instructions: 380000000 cycles: 684739302 heartbeat IPC: 0.782481 cumulative IPC: 0.284465 (Simulation time: 0 hr 38 min 35 sec) 
Heartbeat CPU 0 instructions: 390000002 cycles: 697150559 heartbeat IPC: 0.80572 cumulative IPC: 0.294492 (Simulation time: 0 hr 39 min 2 sec) 
Heartbeat CPU 0 instructions: 400000002 cycles: 709908949 heartbeat IPC: 0.783798 cumulative IPC: 0.303981 (Simulation time: 0 hr 39 min 31 sec) 
Heartbeat CPU 0 instructions: 410000000 cycles: 722124716 heartbeat IPC: 0.818614 cumulative IPC: 0.313362 (Simulation time: 0 hr 39 min 59 sec) 
Heartbeat CPU 0 instructions: 420000000 cycles: 734744760 heartbeat IPC: 0.79239 cumulative IPC: 0.322216 (Simulation time: 0 hr 40 min 27 sec) 
Heartbeat CPU 0 instructions: 430000002 cycles: 747124580 heartbeat IPC: 0.807766 cumulative IPC: 0.330863 (Simulation time: 0 hr 40 min 55 sec) 
Heartbeat CPU 0 instructions: 440000002 cycles: 759452892 heartbeat IPC: 0.811141 cumulative IPC: 0.339232 (Simulation time: 0 hr 41 min 23 sec) 
Heartbeat CPU 0 instructions: 450000002 cycles: 772023099 heartbeat IPC: 0.795532 cumulative IPC: 0.347198 (Simulation time: 0 hr 41 min 52 sec) 
Heartbeat CPU 0 instructions: 460000000 cycles: 784549423 heartbeat IPC: 0.798319 cumulative IPC: 0.354911 (Simulation time: 0 hr 42 min 21 sec) 
Heartbeat CPU 0 instructions: 470000003 cycles: 797475558 heartbeat IPC: 0.773627 cumulative IPC: 0.362172 (Simulation time: 0 hr 42 min 50 sec) 
Heartbeat CPU 0 instructions: 480000000 cycles: 810214687 heartbeat IPC: 0.784983 cumulative IPC: 0.369275 (Simulation time: 0 hr 43 min 18 sec) 
Heartbeat CPU 0 instructions: 490000003 cycles: 822514040 heartbeat IPC: 0.813051 cumulative IPC: 0.376359 (Simulation time: 0 hr 43 min 46 sec) 
Heartbeat CPU 0 instructions: 500000003 cycles: 835174695 heartbeat IPC: 0.789849 cumulative IPC: 0.383043 (Simulation time: 0 hr 44 min 14 sec) 
Heartbeat CPU 0 instructions: 510000004 cycles: 847811805 heartbeat IPC: 0.79132 cumulative IPC: 0.389526 (Simulation time: 0 hr 44 min 42 sec) 
Heartbeat CPU 0 instructions: 520000002 cycles: 860210640 heartbeat IPC: 0.806527 cumulative IPC: 0.395923 (Simulation time: 0 hr 45 min 10 sec) 
Heartbeat CPU 0 instructions: 530000000 cycles: 872479895 heartbeat IPC: 0.815045 cumulative IPC: 0.40219 (Simulation time: 0 hr 45 min 39 sec) 
Heartbeat CPU 0 instructions: 540000001 cycles: 885019655 heartbeat IPC: 0.797464 cumulative IPC: 0.40814 (Simulation time: 0 hr 46 min 7 sec) 
Heartbeat CPU 0 instructions: 550000001 cycles: 897546171 heartbeat IPC: 0.798307 cumulative IPC: 0.41392 (Simulation time: 0 hr 46 min 36 sec) 
Heartbeat CPU 0 instructions: 560000003 cycles: 910252666 heartbeat IPC: 0.786999 cumulative IPC: 0.419443 (Simulation time: 0 hr 47 min 5 sec) 
Heartbeat CPU 0 instructions: 570000000 cycles: 922885241 heartbeat IPC: 0.791604 cumulative IPC: 0.424842 (Simulation time: 0 hr 47 min 33 sec) 
Heartbeat CPU 0 instructions: 580000001 cycles: 935480908 heartbeat IPC: 0.793924 cumulative IPC: 0.430103 (Simulation time: 0 hr 48 min 1 sec) 
Heartbeat CPU 0 instructions: 590000004 cycles: 947771341 heartbeat IPC: 0.813641 cumulative IPC: 0.435366 (Simulation time: 0 hr 48 min 29 sec) 
Heartbeat CPU 0 instructions: 600000001 cycles: 960014513 heartbeat IPC: 0.816782 cumulative IPC: 0.440508 (Simulation time: 0 hr 48 min 57 sec) 
Heartbeat CPU 0 instructions: 610000003 cycles: 972176296 heartbeat IPC: 0.822248 cumulative IPC: 0.445553 (Simulation time: 0 hr 49 min 25 sec) 
Heartbeat CPU 0 instructions: 620000001 cycles: 984503836 heartbeat IPC: 0.811192 cumulative IPC: 0.450387 (Simulation time: 0 hr 49 min 53 sec) 
Heartbeat CPU 0 instructions: 630000004 cycles: 996918145 heartbeat IPC: 0.805522 cumulative IPC: 0.455053 (Simulation time: 0 hr 50 min 21 sec) 
Heartbeat CPU 0 instructions: 640000001 cycles: 1009298404 heartbeat IPC: 0.807737 cumulative IPC: 0.459614 (Simulation time: 0 hr 50 min 50 sec) 
Heartbeat CPU 0 instructions: 650000001 cycles: 1021679858 heartbeat IPC: 0.80766 cumulative IPC: 0.464057 (Simulation time: 0 hr 51 min 19 sec) 
Heartbeat CPU 0 instructions: 660000001 cycles: 1034528147 heartbeat IPC: 0.778314 cumulative IPC: 0.468167 (Simulation time: 0 hr 51 min 52 sec) 
Heartbeat CPU 0 instructions: 670000004 cycles: 1047302170 heartbeat IPC: 0.782839 cumulative IPC: 0.472205 (Simulation time: 0 hr 52 min 21 sec) 
Heartbeat CPU 0 instructions: 680000000 cycles: 1060001475 heartbeat IPC: 0.787444 cumulative IPC: 0.476177 (Simulation time: 0 hr 52 min 49 sec) 
Heartbeat CPU 0 instructions: 690000003 cycles: 1072817327 heartbeat IPC: 0.780284 cumulative IPC: 0.479995 (Simulation time: 0 hr 53 min 18 sec) 
Heartbeat CPU 0 instructions: 700000003 cycles: 1085288850 heartbeat IPC: 0.801827 cumulative IPC: 0.483879 (Simulation time: 0 hr 53 min 46 sec) 
Heartbeat CPU 0 instructions: 710000004 cycles: 1097850354 heartbeat IPC: 0.796083 cumulative IPC: 0.487629 (Simulation time: 0 hr 54 min 14 sec) 
Heartbeat CPU 0 instructions: 720000004 cycles: 1109970892 heartbeat IPC: 0.825046 cumulative IPC: 0.491494 (Simulation time: 0 hr 54 min 43 sec) 
Heartbeat CPU 0 instructions: 730000001 cycles: 1122534748 heartbeat IPC: 0.795934 cumulative IPC: 0.495067 (Simulation time: 0 hr 55 min 11 sec) 
Heartbeat CPU 0 instructions: 740000003 cycles: 1134989578 heartbeat IPC: 0.802902 cumulative IPC: 0.498607 (Simulation time: 0 hr 55 min 40 sec) 
Heartbeat CPU 0 instructions: 750000000 cycles: 1147378265 heartbeat IPC: 0.807188 cumulative IPC: 0.502097 (Simulation time: 0 hr 56 min 8 sec) 
Heartbeat CPU 0 instructions: 760000003 cycles: 1159739248 heartbeat IPC: 0.808997 cumulative IPC: 0.505522 (Simulation time: 0 hr 56 min 37 sec) 
Heartbeat CPU 0 instructions: 770000002 cycles: 1172412032 heartbeat IPC: 0.789093 cumulative IPC: 0.508729 (Simulation time: 0 hr 57 min 6 sec) 
Heartbeat CPU 0 instructions: 780000001 cycles: 1185147164 heartbeat IPC: 0.785229 cumulative IPC: 0.511836 (Simulation time: 0 hr 57 min 34 sec) 
Heartbeat CPU 0 instructions: 790000004 cycles: 1197696101 heartbeat IPC: 0.79688 cumulative IPC: 0.514958 (Simulation time: 0 hr 58 min 3 sec) 
Heartbeat CPU 0 instructions: 800000000 cycles: 1210438933 heartbeat IPC: 0.784755 cumulative IPC: 0.517926 (Simulation time: 0 hr 58 min 31 sec) 
Heartbeat CPU 0 instructions: 810000004 cycles: 1223228521 heartbeat IPC: 0.781886 cumulative IPC: 0.520808 (Simulation time: 0 hr 59 min 0 sec) 
Heartbeat CPU 0 instructions: 820000001 cycles: 1235939578 heartbeat IPC: 0.786716 cumulative IPC: 0.523663 (Simulation time: 0 hr 59 min 28 sec) 
Heartbeat CPU 0 instructions: 830000000 cycles: 1248702155 heartbeat IPC: 0.783541 cumulative IPC: 0.526435 (Simulation time: 0 hr 59 min 56 sec) 
Heartbeat CPU 0 instructions: 840000001 cycles: 1261075564 heartbeat IPC: 0.808185 cumulative IPC: 0.529318 (Simulation time: 1 hr 0 min 25 sec) 
Heartbeat CPU 0 instructions: 850000004 cycles: 1273292610 heartbeat IPC: 0.818529 cumulative IPC: 0.532211 (Simulation time: 1 hr 0 min 53 sec) 
Heartbeat CPU 0 instructions: 860000001 cycles: 1285851700 heartbeat IPC: 0.796236 cumulative IPC: 0.534898 (Simulation time: 1 hr 1 min 21 sec) 
Heartbeat CPU 0 instructions: 870000000 cycles: 1298339903 heartbeat IPC: 0.800756 cumulative IPC: 0.537562 (Simulation time: 1 hr 1 min 50 sec) 
Heartbeat CPU 0 instructions: 880000000 cycles: 1310906671 heartbeat IPC: 0.79575 cumulative IPC: 0.540139 (Simulation time: 1 hr 2 min 18 sec) 
Heartbeat CPU 0 instructions: 890000000 cycles: 1323078288 heartbeat IPC: 0.821584 cumulative IPC: 0.542834 (Simulation time: 1 hr 2 min 46 sec) 
Heartbeat CPU 0 instructions: 900000001 cycles: 1335815656 heartbeat IPC: 0.785092 cumulative IPC: 0.545238 (Simulation time: 1 hr 3 min 14 sec) 
Heartbeat CPU 0 instructions: 910000000 cycles: 1348415667 heartbeat IPC: 0.79365 cumulative IPC: 0.547652 (Simulation time: 1 hr 3 min 43 sec) 
Heartbeat CPU 0 instructions: 920000002 cycles: 1360906831 heartbeat IPC: 0.800566 cumulative IPC: 0.550066 (Simulation time: 1 hr 4 min 11 sec) 
Heartbeat CPU 0 instructions: 930000003 cycles: 1373571236 heartbeat IPC: 0.789615 cumulative IPC: 0.552361 (Simulation time: 1 hr 4 min 39 sec) 
Heartbeat CPU 0 instructions: 940000002 cycles: 1386065394 heartbeat IPC: 0.800374 cumulative IPC: 0.554684 (Simulation time: 1 hr 5 min 7 sec) 
Heartbeat CPU 0 instructions: 950000000 cycles: 1398650437 heartbeat IPC: 0.794594 cumulative IPC: 0.556926 (Simulation time: 1 hr 5 min 36 sec) 
Heartbeat CPU 0 instructions: 960000000 cycles: 1410741508 heartbeat IPC: 0.827057 cumulative IPC: 0.55933 (Simulation time: 1 hr 6 min 4 sec) 
Heartbeat CPU 0 instructions: 970000001 cycles: 1422863228 heartbeat IPC: 0.824966 cumulative IPC: 0.561679 (Simulation time: 1 hr 6 min 33 sec) 
Heartbeat CPU 0 instructions: 980000003 cycles: 1435387324 heartbeat IPC: 0.798461 cumulative IPC: 0.563822 (Simulation time: 1 hr 7 min 1 sec) 
Heartbeat CPU 0 instructions: 990000000 cycles: 1447861627 heartbeat IPC: 0.801648 cumulative IPC: 0.565947 (Simulation time: 1 hr 7 min 30 sec) 
*** Reached end of trace: gcc_13B.trace.xz
Heartbeat CPU 0 instructions: 1000000001 cycles: 1460235578 heartbeat IPC: 0.808149 cumulative IPC: 0.568076 (Simulation time: 1 hr 7 min 58 sec) 
Heartbeat CPU 0 instructions: 1010000003 cycles: 1512032929 heartbeat IPC: 0.19306 cumulative IPC: 0.554772 (Simulation time: 1 hr 9 min 35 sec) 
Heartbeat CPU 0 instructions: 1020000003 cycles: 1562230927 heartbeat IPC: 0.199211 cumulative IPC: 0.542953 (Simulation time: 1 hr 11 min 0 sec) 
Heartbeat CPU 0 instructions: 1030000002 cycles: 1621291537 heartbeat IPC: 0.169318 cumulative IPC: 0.528892 (Simulation time: 1 hr 12 min 36 sec) 
Heartbeat CPU 0 instructions: 1040000004 cycles: 1663425278 heartbeat IPC: 0.23734 cumulative IPC: 0.521269 (Simulation time: 1 hr 14 min 8 sec) 
Heartbeat CPU 0 instructions: 1050000002 cycles: 1681467439 heartbeat IPC: 0.554257 cumulative IPC: 0.521634 (Simulation time: 1 hr 14 min 40 sec) 
Heartbeat CPU 0 instructions: 1060000003 cycles: 1699459968 heartbeat IPC: 0.555786 cumulative IPC: 0.522007 (Simulation time: 1 hr 15 min 11 sec) 
Heartbeat CPU 0 instructions: 1070000000 cycles: 1718084588 heartbeat IPC: 0.536924 cumulative IPC: 0.522174 (Simulation time: 1 hr 15 min 43 sec) 
Heartbeat CPU 0 instructions: 1080000002 cycles: 1736151644 heartbeat IPC: 0.553494 cumulative IPC: 0.52251 (Simulation time: 1 hr 16 min 14 sec) 
Heartbeat CPU 0 instructions: 1090000000 cycles: 1754285521 heartbeat IPC: 0.551454 cumulative IPC: 0.522818 (Simulation time: 1 hr 16 min 47 sec) 
Heartbeat CPU 0 instructions: 1100000000 cycles: 1772092930 heartbeat IPC: 0.561564 cumulative IPC: 0.523219 (Simulation time: 1 hr 17 min 17 sec) 
Heartbeat CPU 0 instructions: 1110000002 cycles: 1797834993 heartbeat IPC: 0.388469 cumulative IPC: 0.521232 (Simulation time: 1 hr 17 min 55 sec) 
Heartbeat CPU 0 instructions: 1120000004 cycles: 1824401553 heartbeat IPC: 0.376413 cumulative IPC: 0.519062 (Simulation time: 1 hr 18 min 34 sec) 
Heartbeat CPU 0 instructions: 1130000000 cycles: 1856790993 heartbeat IPC: 0.308742 cumulative IPC: 0.515287 (Simulation time: 1 hr 19 min 22 sec) 
Heartbeat CPU 0 instructions: 1140000003 cycles: 1887019045 heartbeat IPC: 0.330819 cumulative IPC: 0.512249 (Simulation time: 1 hr 20 min 8 sec) 
Heartbeat CPU 0 instructions: 1150000003 cycles: 1921432199 heartbeat IPC: 0.290587 cumulative IPC: 0.508168 (Simulation time: 1 hr 21 min 43 sec) 
Heartbeat CPU 0 instructions: 1160000003 cycles: 1953920995 heartbeat IPC: 0.307798 cumulative IPC: 0.504745 (Simulation time: 1 hr 22 min 33 sec) 
Heartbeat CPU 0 instructions: 1170000000 cycles: 2013780497 heartbeat IPC: 0.167058 cumulative IPC: 0.494442 (Simulation time: 1 hr 23 min 59 sec) 
Heartbeat CPU 0 instructions: 1180000004 cycles: 2062944269 heartbeat IPC: 0.203402 cumulative IPC: 0.487327 (Simulation time: 1 hr 25 min 20 sec) 
Heartbeat CPU 0 instructions: 1190000001 cycles: 2108324670 heartbeat IPC: 0.220359 cumulative IPC: 0.481435 (Simulation time: 1 hr 26 min 25 sec) 
Heartbeat CPU 0 instructions: 1200000001 cycles: 2154148576 heartbeat IPC: 0.218227 cumulative IPC: 0.475698 (Simulation time: 1 hr 27 min 30 sec) 
Finished CPU 0 instructions: 1000000003 cycles: 2102176192 cumulative IPC: 0.475698 (Simulation time: 1 hr 27 min 30 sec) 

ChampSim completed all CPUs

Region of Interest Statistics

CPU 0 cumulative IPC: 0.475698 instructions: 1000000003 cycles: 2102176192
cpu0_DTLB TOTAL     ACCESS:  229640737  HIT:  224381299  MISS:    5259438
cpu0_DTLB LOAD      ACCESS:  168440346  HIT:  163799024  MISS:    4641322
cpu0_DTLB RFO       ACCESS:   61200391  HIT:   60582275  MISS:     618116
cpu0_DTLB PREFETCH  ACCESS:          0  HIT:          0  MISS:          0
cpu0_DTLB WRITEBACK ACCESS:          0  HIT:          0  MISS:          0
cpu0_DTLB TRANSLATION ACCESS:          0  HIT:          0  MISS:          0
cpu0_DTLB PREFETCH  REQUESTED:          0  ISSUED:          0  USEFUL:          0  USELESS:          0
cpu0_DTLB AVERAGE MISS LATENCY: 21.096 cycles
cpu0_ITLB TOTAL     ACCESS:   98575246  HIT:   98574007  MISS:       1239
cpu0_ITLB LOAD      ACCESS:   98575246  HIT:   98574007  MISS:       1239
cpu0_ITLB RFO       ACCESS:          0  HIT:          0  MISS:          0
cpu0_ITLB PREFETCH  ACCESS:          0  HIT:          0  MISS:          0
cpu0_ITLB WRITEBACK ACCESS:          0  HIT:          0  MISS:          0
cpu0_ITLB TRANSLATION ACCESS:          0  HIT:          0  MISS:          0
cpu0_ITLB PREFETCH  REQUESTED:          0  ISSUED:          0  USEFUL:          0  USELESS:          0
cpu0_ITLB AVERAGE MISS LATENCY: 25.3906 cycles
cpu0_L1I TOTAL     ACCESS:  104496965  HIT:  104490281  MISS:       6684
cpu0_L1I LOAD      ACCESS:  104496965  HIT:  104490281  MISS:       6684
cpu0_L1I RFO       ACCESS:          0  HIT:          0  MISS:          0
cpu0_L1I PREFETCH  ACCESS:          0  HIT:          0  MISS:          0
cpu0_L1I WRITEBACK ACCESS:          0  HIT:          0  MISS:          0
cpu0_L1I TRANSLATION ACCESS:          0  HIT:          0  MISS:          0
cpu0_L1I PREFETCH  REQUESTED:          0  ISSUED:          0  USEFUL:          0  USELESS:          0
cpu0_L1I AVERAGE MISS LATENCY: 95.9277 cycles
cpu0_STLB TOTAL     ACCESS:    5260677  HIT:    2922611  MISS:    2338066
cpu0_STLB LOAD      ACCESS:    4642561  HIT:    2830973  MISS:    1811588
cpu0_STLB RFO       ACCESS:     618116  HIT:      91638  MISS:     526478
cpu0_STLB PREFETCH  ACCESS:          0  HIT:          0  MISS:          0
cpu0_STLB WRITEBACK ACCESS:          0  HIT:          0  MISS:          0
cpu0_STLB TRANSLATION ACCESS:          0  HIT:          0  MISS:          0
cpu0_STLB PREFETCH  REQUESTED:          0  ISSUED:          0  USEFUL:          0  USELESS:          0
cpu0_STLB AVERAGE MISS LATENCY: 27.1627 cycles
cpu0_L1D TOTAL     ACCESS:  294787886  HIT:  278466714  MISS:   16321172
cpu0_L1D LOAD      ACCESS:  157268693  HIT:  144124622  MISS:   13144071
cpu0_L1D RFO       ACCESS:  135189571  HIT:  132028401  MISS:    3161170
cpu0_L1D PREFETCH  ACCESS:          0  HIT:          0  MISS:          0
cpu0_L1D WRITEBACK ACCESS:          0  HIT:          0  MISS:          0
cpu0_L1D TRANSLATION ACCESS:    2329622  HIT:    2313691  MISS:      15931
cpu0_L1D PREFETCH  REQUESTED:          0  ISSUED:          0  USEFUL:          0  USELESS:          0
cpu0_L1D AVERAGE MISS LATENCY: 260.738 cycles
cpu0_L2C TOTAL     ACCESS:   21054721  HIT:    6095213  MISS:   14959508
cpu0_L2C LOAD      ACCESS:   13150750  HIT:    1343969  MISS:   11806781
cpu0_L2C RFO       ACCESS:    3161170  HIT:      15018  MISS:    3146152
cpu0_L2C PREFETCH  ACCESS:          0  HIT:          0  MISS:          0
cpu0_L2C WRITEBACK ACCESS:    4726870  HIT:    4723421  MISS:       3449
cpu0_L2C TRANSLATION ACCESS:      15931  HIT:      12805  MISS:       3126
cpu0_L2C PREFETCH  REQUESTED:          0  ISSUED:          0  USEFUL:          0  USELESS:          0
cpu0_L2C AVERAGE MISS LATENCY: 272.494 cycles
LLC TOTAL     ACCESS:   19627182  HIT:   10354878  MISS:    9272304
LLC LOAD      ACCESS:   11806779  HIT:    6836261  MISS:    4970518
LLC RFO       ACCESS:    3146152  HIT:      86672  MISS:    3059480
LLC PREFETCH  ACCESS:          0  HIT:          0  MISS:          0
LLC WRITEBACK ACCESS:    4671125  HIT:    3429333  MISS:    1241792
LLC TRANSLATION ACCESS:       3126  HIT:       2612  MISS:        514
LLC PREFETCH  REQUESTED:          0  ISSUED:          0  USEFUL:          0  USELESS:          0
LLC AVERAGE MISS LATENCY: 405.756 cycles

DRAM Statistics
 CHANNEL 0
 RQ ROW_BUFFER_HIT:    1476129  ROW_BUFFER_MISS:    6553918
 DBUS AVG_CONGESTED_CYCLE:    3.97445
 WQ ROW_BUFFER_HIT:     609974  ROW_BUFFER_MISS:    3369367  FULL:          0


CPU 0 Branch Prediction Accuracy: 90.1397% MPKI: 23.3937 Average ROB Occupancy at Mispredict: 25.9304
Branch type MPKI
BRANCH_DIRECT_JUMP: 0.000298
BRANCH_INDIRECT: 0.445375
BRANCH_CONDITIONAL: 22.9231
BRANCH_DIRECT_CALL: 0.000457
BRANCH_INDIRECT_CALL: 0.000609
BRANCH_RETURN: 0.023791

