
*** ChampSim Multicore Out-of-Order Simulator ***

Warmup Instructions: 200000000
Simulation Instructions: 1000000000
Number of CPUs: 1
Off-chip DRAM Size: 4 GiB Channels: 1 Width: 64-bit Data Rate: 3200 MT/s

VirtualMemory physical capacity: 8588881920 num_ppages: 2096895
VirtualMemory page size: 4096 log2_page_size: 12

CPU 0 runs Traces/libquantum_964B.trace.xz
CPU 0 Bimodal branch predictor
Basic BTB sets: 1024 ways: 8 indirect buffer size: 4096 RAS size: 64
Initialize LRU-eye replacement policy state
Finished initializing Hawkeye replacement policy state
Heartbeat CPU 0 instructions: 10000001 cycles: 2500058 heartbeat IPC: 3.99991 cumulative IPC: 3.99991 (Simulation time: 0 hr 0 min 13 sec) 
Heartbeat CPU 0 instructions: 20000001 cycles: 5000058 heartbeat IPC: 4 cumulative IPC: 3.99995 (Simulation time: 0 hr 0 min 27 sec) 
Heartbeat CPU 0 instructions: 30000001 cycles: 7500058 heartbeat IPC: 4 cumulative IPC: 3.99997 (Simulation time: 0 hr 0 min 40 sec) 
Heartbeat CPU 0 instructions: 40000001 cycles: 10000058 heartbeat IPC: 4 cumulative IPC: 3.99998 (Simulation time: 0 hr 0 min 54 sec) 
Heartbeat CPU 0 instructions: 50000001 cycles: 12500058 heartbeat IPC: 4 cumulative IPC: 3.99998 (Simulation time: 0 hr 1 min 7 sec) 
Heartbeat CPU 0 instructions: 60000001 cycles: 15000058 heartbeat IPC: 4 cumulative IPC: 3.99998 (Simulation time: 0 hr 1 min 20 sec) 
Heartbeat CPU 0 instructions: 70000001 cycles: 17500058 heartbeat IPC: 4 cumulative IPC: 3.99999 (Simulation time: 0 hr 1 min 34 sec) 
Heartbeat CPU 0 instructions: 80000001 cycles: 20000058 heartbeat IPC: 4 cumulative IPC: 3.99999 (Simulation time: 0 hr 1 min 48 sec) 
Heartbeat CPU 0 instructions: 90000001 cycles: 22500058 heartbeat IPC: 4 cumulative IPC: 3.99999 (Simulation time: 0 hr 2 min 2 sec) 
Heartbeat CPU 0 instructions: 100000001 cycles: 25000058 heartbeat IPC: 4 cumulative IPC: 3.99999 (Simulation time: 0 hr 2 min 15 sec) 
Heartbeat CPU 0 instructions: 110000001 cycles: 27500058 heartbeat IPC: 4 cumulative IPC: 3.99999 (Simulation time: 0 hr 2 min 30 sec) 
Heartbeat CPU 0 instructions: 120000001 cycles: 30000058 heartbeat IPC: 4 cumulative IPC: 3.99999 (Simulation time: 0 hr 2 min 44 sec) 
Heartbeat CPU 0 instructions: 130000001 cycles: 32500058 heartbeat IPC: 4 cumulative IPC: 3.99999 (Simulation time: 0 hr 2 min 57 sec) 
Heartbeat CPU 0 instructions: 140000001 cycles: 35000058 heartbeat IPC: 4 cumulative IPC: 3.99999 (Simulation time: 0 hr 3 min 12 sec) 
Heartbeat CPU 0 instructions: 150000001 cycles: 37500058 heartbeat IPC: 4 cumulative IPC: 3.99999 (Simulation time: 0 hr 3 min 26 sec) 
Heartbeat CPU 0 instructions: 160000001 cycles: 40000058 heartbeat IPC: 4 cumulative IPC: 3.99999 (Simulation time: 0 hr 3 min 39 sec) 
Heartbeat CPU 0 instructions: 170000001 cycles: 42500058 heartbeat IPC: 4 cumulative IPC: 3.99999 (Simulation time: 0 hr 3 min 52 sec) 
Heartbeat CPU 0 instructions: 180000001 cycles: 45000058 heartbeat IPC: 4 cumulative IPC: 3.99999 (Simulation time: 0 hr 4 min 6 sec) 
Heartbeat CPU 0 instructions: 190000001 cycles: 47500058 heartbeat IPC: 4 cumulative IPC: 4 (Simulation time: 0 hr 4 min 19 sec) 
Heartbeat CPU 0 instructions: 200000001 cycles: 50000058 heartbeat IPC: 4 cumulative IPC: 4 (Simulation time: 0 hr 4 min 32 sec) 

Warmup complete CPU 0 instructions: 200000001 cycles: 50000058 (Simulation time: 0 hr 4 min 32 sec) 

Heartbeat CPU 0 instructions: 210000004 cycles: 82560740 heartbeat IPC: 0.307119 cumulative IPC: 0.307119 (Simulation time: 0 hr 6 min 38 sec) 
Heartbeat CPU 0 instructions: 220000003 cycles: 103846806 heartbeat IPC: 0.469791 cumulative IPC: 0.371424 (Simulation time: 0 hr 7 min 30 sec) 
Heartbeat CPU 0 instructions: 230000004 cycles: 120551938 heartbeat IPC: 0.598619 cumulative IPC: 0.425219 (Simulation time: 0 hr 8 min 2 sec) 
Heartbeat CPU 0 instructions: 240000002 cycles: 154123526 heartbeat IPC: 0.297871 cumulative IPC: 0.384159 (Simulation time: 0 hr 10 min 12 sec) 
Heartbeat CPU 0 instructions: 250000001 cycles: 164581590 heartbeat IPC: 0.9562 cumulative IPC: 0.43637 (Simulation time: 0 hr 10 min 57 sec) 
Heartbeat CPU 0 instructions: 260000000 cycles: 169605770 heartbeat IPC: 1.99037 cumulative IPC: 0.501648 (Simulation time: 0 hr 11 min 24 sec) 
Heartbeat CPU 0 instructions: 270000000 cycles: 203988242 heartbeat IPC: 0.290846 cumulative IPC: 0.45458 (Simulation time: 0 hr 13 min 40 sec) 
Heartbeat CPU 0 instructions: 280000003 cycles: 222909728 heartbeat IPC: 0.5285 cumulative IPC: 0.462669 (Simulation time: 0 hr 14 min 20 sec) 
Heartbeat CPU 0 instructions: 290000000 cycles: 239170724 heartbeat IPC: 0.614968 cumulative IPC: 0.475761 (Simulation time: 0 hr 14 min 51 sec) 
Heartbeat CPU 0 instructions: 300000004 cycles: 244422978 heartbeat IPC: 1.90395 cumulative IPC: 0.514343 (Simulation time: 0 hr 15 min 18 sec) 
Heartbeat CPU 0 instructions: 310000003 cycles: 252269199 heartbeat IPC: 1.2745 cumulative IPC: 0.54383 (Simulation time: 0 hr 15 min 56 sec) 
Heartbeat CPU 0 instructions: 320000001 cycles: 287397823 heartbeat IPC: 0.284668 cumulative IPC: 0.505481 (Simulation time: 0 hr 18 min 10 sec) 
Heartbeat CPU 0 instructions: 330000002 cycles: 304580406 heartbeat IPC: 0.581985 cumulative IPC: 0.510644 (Simulation time: 0 hr 18 min 41 sec) 
Heartbeat CPU 0 instructions: 340000003 cycles: 319145568 heartbeat IPC: 0.68657 cumulative IPC: 0.520165 (Simulation time: 0 hr 19 min 12 sec) 
Heartbeat CPU 0 instructions: 350000002 cycles: 324214717 heartbeat IPC: 1.97272 cumulative IPC: 0.547017 (Simulation time: 0 hr 19 min 38 sec) 
Heartbeat CPU 0 instructions: 360000001 cycles: 337041630 heartbeat IPC: 0.779611 cumulative IPC: 0.557411 (Simulation time: 0 hr 20 min 35 sec) 
Heartbeat CPU 0 instructions: 370000002 cycles: 369572173 heartbeat IPC: 0.307403 cumulative IPC: 0.531961 (Simulation time: 0 hr 22 min 32 sec) 
Heartbeat CPU 0 instructions: 380000001 cycles: 386343380 heartbeat IPC: 0.59626 cumulative IPC: 0.535167 (Simulation time: 0 hr 23 min 2 sec) 
Heartbeat CPU 0 instructions: 390000002 cycles: 399068963 heartbeat IPC: 0.785819 cumulative IPC: 0.544305 (Simulation time: 0 hr 23 min 32 sec) 
Heartbeat CPU 0 instructions: 400000001 cycles: 404092999 heartbeat IPC: 1.99043 cumulative IPC: 0.564823 (Simulation time: 0 hr 23 min 59 sec) 
Heartbeat CPU 0 instructions: 410000004 cycles: 422104411 heartbeat IPC: 0.555204 cumulative IPC: 0.564358 (Simulation time: 0 hr 25 min 15 sec) 
Heartbeat CPU 0 instructions: 420000002 cycles: 451396995 heartbeat IPC: 0.341383 cumulative IPC: 0.548086 (Simulation time: 0 hr 26 min 52 sec) 
Heartbeat CPU 0 instructions: 430000000 cycles: 468096459 heartbeat IPC: 0.598822 cumulative IPC: 0.550112 (Simulation time: 0 hr 27 min 23 sec) 
Heartbeat CPU 0 instructions: 440000000 cycles: 483417492 heartbeat IPC: 0.652698 cumulative IPC: 0.553739 (Simulation time: 0 hr 27 min 53 sec) 
Heartbeat CPU 0 instructions: 450000000 cycles: 497330583 heartbeat IPC: 0.718748 cumulative IPC: 0.558871 (Simulation time: 0 hr 28 min 23 sec) 
Heartbeat CPU 0 instructions: 460000002 cycles: 523662723 heartbeat IPC: 0.379764 cumulative IPC: 0.548914 (Simulation time: 0 hr 29 min 58 sec) 
Heartbeat CPU 0 instructions: 470000000 cycles: 549974469 heartbeat IPC: 0.380058 cumulative IPC: 0.540028 (Simulation time: 0 hr 31 min 20 sec) 
Heartbeat CPU 0 instructions: 480000000 cycles: 566666593 heartbeat IPC: 0.599085 cumulative IPC: 0.541936 (Simulation time: 0 hr 31 min 50 sec) 
Heartbeat CPU 0 instructions: 490000003 cycles: 586809278 heartbeat IPC: 0.496458 cumulative IPC: 0.540229 (Simulation time: 0 hr 32 min 22 sec) 
Heartbeat CPU 0 instructions: 500000000 cycles: 608789871 heartbeat IPC: 0.454947 cumulative IPC: 0.536874 (Simulation time: 0 hr 32 min 55 sec) 
Heartbeat CPU 0 instructions: 510000000 cycles: 640374967 heartbeat IPC: 0.316605 cumulative IPC: 0.52509 (Simulation time: 0 hr 34 min 49 sec) 
Heartbeat CPU 0 instructions: 520000002 cycles: 667717188 heartbeat IPC: 0.365735 cumulative IPC: 0.518036 (Simulation time: 0 hr 35 min 56 sec) 
Heartbeat CPU 0 instructions: 530000001 cycles: 689681375 heartbeat IPC: 0.455287 cumulative IPC: 0.515882 (Simulation time: 0 hr 36 min 29 sec) 
Heartbeat CPU 0 instructions: 540000003 cycles: 721731615 heartbeat IPC: 0.31201 cumulative IPC: 0.506155 (Simulation time: 0 hr 38 min 26 sec) 
Heartbeat CPU 0 instructions: 550000002 cycles: 754220301 heartbeat IPC: 0.307799 cumulative IPC: 0.497004 (Simulation time: 0 hr 39 min 41 sec) 
Heartbeat CPU 0 instructions: 560000004 cycles: 784883557 heartbeat IPC: 0.326123 cumulative IPC: 0.489874 (Simulation time: 0 hr 40 min 32 sec) 
Heartbeat CPU 0 instructions: 570000001 cycles: 819241496 heartbeat IPC: 0.291053 cumulative IPC: 0.480993 (Simulation time: 0 hr 42 min 40 sec) 
Heartbeat CPU 0 instructions: 580000001 cycles: 848321110 heartbeat IPC: 0.343884 cumulative IPC: 0.475999 (Simulation time: 0 hr 43 min 36 sec) 
Heartbeat CPU 0 instructions: 590000001 cycles: 877153526 heartbeat IPC: 0.346832 cumulative IPC: 0.471497 (Simulation time: 0 hr 44 min 13 sec) 
Heartbeat CPU 0 instructions: 600000002 cycles: 911504638 heartbeat IPC: 0.291111 cumulative IPC: 0.464304 (Simulation time: 0 hr 44 min 51 sec) 
Heartbeat CPU 0 instructions: 610000002 cycles: 946247506 heartbeat IPC: 0.287829 cumulative IPC: 0.457463 (Simulation time: 0 hr 45 min 29 sec) 
Heartbeat CPU 0 instructions: 620000003 cycles: 982098370 heartbeat IPC: 0.278933 cumulative IPC: 0.450596 (Simulation time: 0 hr 46 min 6 sec) 
Heartbeat CPU 0 instructions: 630000004 cycles: 1017265582 heartbeat IPC: 0.284356 cumulative IPC: 0.444552 (Simulation time: 0 hr 47 min 12 sec) 
Heartbeat CPU 0 instructions: 640000000 cycles: 1052409174 heartbeat IPC: 0.284547 cumulative IPC: 0.438943 (Simulation time: 0 hr 49 min 13 sec) 
Heartbeat CPU 0 instructions: 650000000 cycles: 1083135803 heartbeat IPC: 0.325451 cumulative IPC: 0.435567 (Simulation time: 0 hr 50 min 4 sec) 
Heartbeat CPU 0 instructions: 660000004 cycles: 1116486515 heartbeat IPC: 0.299844 cumulative IPC: 0.431323 (Simulation time: 0 hr 51 min 33 sec) 
Heartbeat CPU 0 instructions: 670000003 cycles: 1153591644 heartbeat IPC: 0.269504 cumulative IPC: 0.425882 (Simulation time: 0 hr 53 min 22 sec) 
Heartbeat CPU 0 instructions: 680000001 cycles: 1191709926 heartbeat IPC: 0.262341 cumulative IPC: 0.420422 (Simulation time: 0 hr 54 min 7 sec) 
Heartbeat CPU 0 instructions: 690000004 cycles: 1229507311 heartbeat IPC: 0.264569 cumulative IPC: 0.415428 (Simulation time: 0 hr 55 min 7 sec) 
Heartbeat CPU 0 instructions: 700000001 cycles: 1266354708 heartbeat IPC: 0.27139 cumulative IPC: 0.411064 (Simulation time: 0 hr 57 min 22 sec) 
Heartbeat CPU 0 instructions: 710000000 cycles: 1303460469 heartbeat IPC: 0.2695 cumulative IPC: 0.406874 (Simulation time: 0 hr 58 min 6 sec) 
Heartbeat CPU 0 instructions: 720000000 cycles: 1340551070 heartbeat IPC: 0.26961 cumulative IPC: 0.402929 (Simulation time: 0 hr 58 min 50 sec) 
Heartbeat CPU 0 instructions: 730000001 cycles: 1364381280 heartbeat IPC: 0.419635 cumulative IPC: 0.403232 (Simulation time: 0 hr 59 min 26 sec) 
Heartbeat CPU 0 instructions: 740000003 cycles: 1386074849 heartbeat IPC: 0.460966 cumulative IPC: 0.404169 (Simulation time: 1 hr 0 min 0 sec) 
Heartbeat CPU 0 instructions: 750000003 cycles: 1421683256 heartbeat IPC: 0.280833 cumulative IPC: 0.400967 (Simulation time: 1 hr 2 min 22 sec) 
Heartbeat CPU 0 instructions: 760000000 cycles: 1450200090 heartbeat IPC: 0.35067 cumulative IPC: 0.399943 (Simulation time: 1 hr 3 min 6 sec) 
Heartbeat CPU 0 instructions: 770000003 cycles: 1478228995 heartbeat IPC: 0.356775 cumulative IPC: 0.399096 (Simulation time: 1 hr 3 min 48 sec) 
Heartbeat CPU 0 instructions: 780000003 cycles: 1497778423 heartbeat IPC: 0.511524 cumulative IPC: 0.400614 (Simulation time: 1 hr 4 min 23 sec) 
Heartbeat CPU 0 instructions: 790000002 cycles: 1514726000 heartbeat IPC: 0.590055 cumulative IPC: 0.402806 (Simulation time: 1 hr 4 min 54 sec) 
Heartbeat CPU 0 instructions: 800000002 cycles: 1548505935 heartbeat IPC: 0.296034 cumulative IPC: 0.400399 (Simulation time: 1 hr 7 min 5 sec) 
Heartbeat CPU 0 instructions: 810000001 cycles: 1564619165 heartbeat IPC: 0.620608 cumulative IPC: 0.402742 (Simulation time: 1 hr 7 min 50 sec) 
Heartbeat CPU 0 instructions: 820000000 cycles: 1576652118 heartbeat IPC: 0.831051 cumulative IPC: 0.406117 (Simulation time: 1 hr 8 min 19 sec) 
Heartbeat CPU 0 instructions: 830000001 cycles: 1581901394 heartbeat IPC: 1.90502 cumulative IPC: 0.411254 (Simulation time: 1 hr 8 min 46 sec) 
Heartbeat CPU 0 instructions: 840000003 cycles: 1588382170 heartbeat IPC: 1.54303 cumulative IPC: 0.416021 (Simulation time: 1 hr 9 min 19 sec) 
Heartbeat CPU 0 instructions: 850000001 cycles: 1624055684 heartbeat IPC: 0.28032 cumulative IPC: 0.412946 (Simulation time: 1 hr 11 min 37 sec) 
Heartbeat CPU 0 instructions: 860000004 cycles: 1641864570 heartbeat IPC: 0.561518 cumulative IPC: 0.414608 (Simulation time: 1 hr 12 min 10 sec) 
Heartbeat CPU 0 instructions: 870000003 cycles: 1657251979 heartbeat IPC: 0.649882 cumulative IPC: 0.416861 (Simulation time: 1 hr 12 min 41 sec) 
Heartbeat CPU 0 instructions: 880000002 cycles: 1662378138 heartbeat IPC: 1.95078 cumulative IPC: 0.421737 (Simulation time: 1 hr 13 min 8 sec) 
Heartbeat CPU 0 instructions: 890000003 cycles: 1673598432 heartbeat IPC: 0.891242 cumulative IPC: 0.424982 (Simulation time: 1 hr 13 min 58 sec) 
Heartbeat CPU 0 instructions: 900000001 cycles: 1705081313 heartbeat IPC: 0.317633 cumulative IPC: 0.42294 (Simulation time: 1 hr 16 min 0 sec) 
Heartbeat CPU 0 instructions: 910000000 cycles: 1710339425 heartbeat IPC: 1.90182 cumulative IPC: 0.427623 (Simulation time: 1 hr 16 min 27 sec) 
Heartbeat CPU 0 instructions: 920000000 cycles: 1715365086 heartbeat IPC: 1.98979 cumulative IPC: 0.432338 (Simulation time: 1 hr 16 min 53 sec) 
Heartbeat CPU 0 instructions: 930000004 cycles: 1720389126 heartbeat IPC: 1.99043 cumulative IPC: 0.437024 (Simulation time: 1 hr 17 min 19 sec) 
Heartbeat CPU 0 instructions: 940000002 cycles: 1737300056 heartbeat IPC: 0.591333 cumulative IPC: 0.43857 (Simulation time: 1 hr 18 min 30 sec) 
Heartbeat CPU 0 instructions: 950000003 cycles: 1763232100 heartbeat IPC: 0.385623 cumulative IPC: 0.437769 (Simulation time: 1 hr 20 min 12 sec) 
Heartbeat CPU 0 instructions: 960000000 cycles: 1768256105 heartbeat IPC: 1.99044 cumulative IPC: 0.442309 (Simulation time: 1 hr 20 min 38 sec) 
Heartbeat CPU 0 instructions: 970000003 cycles: 1787167063 heartbeat IPC: 0.528794 cumulative IPC: 0.44325 (Simulation time: 1 hr 21 min 56 sec) 
Heartbeat CPU 0 instructions: 980000000 cycles: 1811093031 heartbeat IPC: 0.417956 cumulative IPC: 0.442907 (Simulation time: 1 hr 23 min 31 sec) 
Heartbeat CPU 0 instructions: 990000004 cycles: 1816117163 heartbeat IPC: 1.99039 cumulative IPC: 0.447309 (Simulation time: 1 hr 23 min 58 sec) 
*** Reached end of trace: Traces/libquantum_964B.trace.xz
Heartbeat CPU 0 instructions: 1000000000 cycles: 1821142775 heartbeat IPC: 1.98981 cumulative IPC: 0.451686 (Simulation time: 1 hr 24 min 24 sec) 
Heartbeat CPU 0 instructions: 1010000000 cycles: 1830129774 heartbeat IPC: 1.11272 cumulative IPC: 0.455023 (Simulation time: 1 hr 24 min 52 sec) 
Heartbeat CPU 0 instructions: 1020000002 cycles: 1846827437 heartbeat IPC: 0.598886 cumulative IPC: 0.45636 (Simulation time: 1 hr 25 min 22 sec) 
Heartbeat CPU 0 instructions: 1030000004 cycles: 1871025800 heartbeat IPC: 0.413251 cumulative IPC: 0.455787 (Simulation time: 1 hr 26 min 40 sec) 
Heartbeat CPU 0 instructions: 1040000001 cycles: 1896331310 heartbeat IPC: 0.395171 cumulative IPC: 0.454956 (Simulation time: 1 hr 28 min 21 sec) 
Heartbeat CPU 0 instructions: 1050000003 cycles: 1901355447 heartbeat IPC: 1.99039 cumulative IPC: 0.459123 (Simulation time: 1 hr 28 min 47 sec) 
Heartbeat CPU 0 instructions: 1060000004 cycles: 1912208229 heartbeat IPC: 0.921423 cumulative IPC: 0.461817 (Simulation time: 1 hr 29 min 15 sec) 
Heartbeat CPU 0 instructions: 1070000003 cycles: 1928885512 heartbeat IPC: 0.599618 cumulative IPC: 0.46304 (Simulation time: 1 hr 29 min 46 sec) 
Heartbeat CPU 0 instructions: 1080000002 cycles: 1956400601 heartbeat IPC: 0.363437 cumulative IPC: 0.461603 (Simulation time: 1 hr 31 min 22 sec) 
Heartbeat CPU 0 instructions: 1090000001 cycles: 1976576816 heartbeat IPC: 0.495633 cumulative IPC: 0.461959 (Simulation time: 1 hr 32 min 44 sec) 
Heartbeat CPU 0 instructions: 1100000001 cycles: 1981600898 heartbeat IPC: 1.99041 cumulative IPC: 0.465935 (Simulation time: 1 hr 33 min 10 sec) 
Heartbeat CPU 0 instructions: 1110000003 cycles: 2006406372 heartbeat IPC: 0.403137 cumulative IPC: 0.465139 (Simulation time: 1 hr 34 min 51 sec) 
Heartbeat CPU 0 instructions: 1120000003 cycles: 2031354879 heartbeat IPC: 0.400826 cumulative IPC: 0.464329 (Simulation time: 1 hr 36 min 4 sec) 
Heartbeat CPU 0 instructions: 1130000003 cycles: 2048078326 heartbeat IPC: 0.597963 cumulative IPC: 0.465447 (Simulation time: 1 hr 36 min 35 sec) 
Heartbeat CPU 0 instructions: 1140000003 cycles: 2077755203 heartbeat IPC: 0.336963 cumulative IPC: 0.463567 (Simulation time: 1 hr 38 min 23 sec) 
Heartbeat CPU 0 instructions: 1150000002 cycles: 2101875725 heartbeat IPC: 0.414585 cumulative IPC: 0.462991 (Simulation time: 1 hr 39 min 32 sec) 
Heartbeat CPU 0 instructions: 1160000003 cycles: 2118565644 heartbeat IPC: 0.599164 cumulative IPC: 0.46409 (Simulation time: 1 hr 40 min 3 sec) 
Heartbeat CPU 0 instructions: 1170000000 cycles: 2148815638 heartbeat IPC: 0.330578 cumulative IPC: 0.462165 (Simulation time: 1 hr 40 min 38 sec) 
Heartbeat CPU 0 instructions: 1180000000 cycles: 2183262937 heartbeat IPC: 0.290299 cumulative IPC: 0.45939 (Simulation time: 1 hr 41 min 16 sec) 
Heartbeat CPU 0 instructions: 1190000003 cycles: 2204116358 heartbeat IPC: 0.479538 cumulative IPC: 0.459585 (Simulation time: 1 hr 41 min 49 sec) 
Heartbeat CPU 0 instructions: 1200000004 cycles: 2220834103 heartbeat IPC: 0.598167 cumulative IPC: 0.460652 (Simulation time: 1 hr 42 min 20 sec) 
Finished CPU 0 instructions: 1000000003 cycles: 2170834045 cumulative IPC: 0.460652 (Simulation time: 1 hr 42 min 20 sec) 

ChampSim completed all CPUs

Region of Interest Statistics

CPU 0 cumulative IPC: 0.460652 instructions: 1000000003 cycles: 2170834045
cpu0_DTLB TOTAL     ACCESS:   96104306  HIT:   95590925  MISS:     513381
cpu0_DTLB LOAD      ACCESS:   65912787  HIT:   65587908  MISS:     324879
cpu0_DTLB RFO       ACCESS:   30191519  HIT:   30003017  MISS:     188502
cpu0_DTLB PREFETCH  ACCESS:          0  HIT:          0  MISS:          0
cpu0_DTLB WRITEBACK ACCESS:          0  HIT:          0  MISS:          0
cpu0_DTLB TRANSLATION ACCESS:          0  HIT:          0  MISS:          0
cpu0_DTLB PREFETCH  REQUESTED:          0  ISSUED:          0  USEFUL:          0  USELESS:          0
cpu0_DTLB AVERAGE MISS LATENCY: 22.5807 cycles
cpu0_ITLB TOTAL     ACCESS:   28744890  HIT:   28744890  MISS:          0
cpu0_ITLB LOAD      ACCESS:   28744890  HIT:   28744890  MISS:          0
cpu0_ITLB RFO       ACCESS:          0  HIT:          0  MISS:          0
cpu0_ITLB PREFETCH  ACCESS:          0  HIT:          0  MISS:          0
cpu0_ITLB WRITEBACK ACCESS:          0  HIT:          0  MISS:          0
cpu0_ITLB TRANSLATION ACCESS:          0  HIT:          0  MISS:          0
cpu0_ITLB PREFETCH  REQUESTED:          0  ISSUED:          0  USEFUL:          0  USELESS:          0
cpu0_ITLB AVERAGE MISS LATENCY: nan cycles
cpu0_L1I TOTAL     ACCESS:         31  HIT:         21  MISS:         10
cpu0_L1I LOAD      ACCESS:         31  HIT:         21  MISS:         10
cpu0_L1I RFO       ACCESS:          0  HIT:          0  MISS:          0
cpu0_L1I PREFETCH  ACCESS:          0  HIT:          0  MISS:          0
cpu0_L1I WRITEBACK ACCESS:          0  HIT:          0  MISS:          0
cpu0_L1I TRANSLATION ACCESS:          0  HIT:          0  MISS:          0
cpu0_L1I PREFETCH  REQUESTED:          0  ISSUED:          0  USEFUL:          0  USELESS:          0
cpu0_L1I AVERAGE MISS LATENCY: 312.1 cycles
cpu0_STLB TOTAL     ACCESS:     513381  HIT:          0  MISS:     513381
cpu0_STLB LOAD      ACCESS:     324879  HIT:          0  MISS:     324879
cpu0_STLB RFO       ACCESS:     188502  HIT:          0  MISS:     188502
cpu0_STLB PREFETCH  ACCESS:          0  HIT:          0  MISS:          0
cpu0_STLB WRITEBACK ACCESS:          0  HIT:          0  MISS:          0
cpu0_STLB TRANSLATION ACCESS:          0  HIT:          0  MISS:          0
cpu0_STLB PREFETCH  REQUESTED:          0  ISSUED:          0  USEFUL:          0  USELESS:          0
cpu0_STLB AVERAGE MISS LATENCY: 13.5807 cycles
cpu0_L1D TOTAL     ACCESS:   97863977  HIT:   65022686  MISS:   32841291
cpu0_L1D LOAD      ACCESS:   37481064  HIT:    4640402  MISS:   32840662
cpu0_L1D RFO       ACCESS:   59869532  HIT:   59869281  MISS:        251
cpu0_L1D PREFETCH  ACCESS:          0  HIT:          0  MISS:          0
cpu0_L1D WRITEBACK ACCESS:          0  HIT:          0  MISS:          0
cpu0_L1D TRANSLATION ACCESS:     513381  HIT:     513003  MISS:        378
cpu0_L1D PREFETCH  REQUESTED:          0  ISSUED:          0  USEFUL:          0  USELESS:          0
cpu0_L1D AVERAGE MISS LATENCY: 430.594 cycles
cpu0_L2C TOTAL     ACCESS:   49571303  HIT:   16730002  MISS:   32841301
cpu0_L2C LOAD      ACCESS:   32840672  HIT:          0  MISS:   32840672
cpu0_L2C RFO       ACCESS:        251  HIT:          0  MISS:        251
cpu0_L2C PREFETCH  ACCESS:          0  HIT:          0  MISS:          0
cpu0_L2C WRITEBACK ACCESS:   16730002  HIT:   16730002  MISS:          0
cpu0_L2C TRANSLATION ACCESS:        378  HIT:          0  MISS:        378
cpu0_L2C PREFETCH  REQUESTED:          0  ISSUED:          0  USEFUL:          0  USELESS:          0
cpu0_L2C AVERAGE MISS LATENCY: 419.594 cycles
LLC TOTAL     ACCESS:   49571301  HIT:    9839352  MISS:   39731949
LLC LOAD      ACCESS:   32840672  HIT:          0  MISS:   32840672
LLC RFO       ACCESS:        251  HIT:          0  MISS:        251
LLC PREFETCH  ACCESS:          0  HIT:          0  MISS:          0
LLC WRITEBACK ACCESS:   16730000  HIT:    9839352  MISS:    6890648
LLC TRANSLATION ACCESS:        378  HIT:          0  MISS:        378
LLC PREFETCH  REQUESTED:          0  ISSUED:          0  USEFUL:          0  USELESS:          0
LLC AVERAGE MISS LATENCY: 329.466 cycles

DRAM Statistics
 CHANNEL 0
 RQ ROW_BUFFER_HIT:   16033422  ROW_BUFFER_MISS:   16807296
 DBUS AVG_CONGESTED_CYCLE:    3.90222
 WQ ROW_BUFFER_HIT:    2760189  ROW_BUFFER_MISS:   13969740  FULL:          0


CPU 0 Branch Prediction Accuracy: 97.223% MPKI: 5.95627 Average ROB Occupancy at Mispredict: 26.6443
Branch type MPKI
BRANCH_DIRECT_JUMP: 3e-06
BRANCH_INDIRECT: 0
BRANCH_CONDITIONAL: 5.95623
BRANCH_DIRECT_CALL: 1.5e-05
BRANCH_INDIRECT_CALL: 0
BRANCH_RETURN: 1.6e-05

