
*** ChampSim Multicore Out-of-Order Simulator ***

Warmup Instructions: 200000000
Simulation Instructions: 1000000000
Number of CPUs: 1
Off-chip DRAM Size: 4 GiB Channels: 1 Width: 64-bit Data Rate: 3200 MT/s

VirtualMemory physical capacity: 8588881920 num_ppages: 2096895
VirtualMemory page size: 4096 log2_page_size: 12

CPU 0 runs ./Traces/Traces/bwaves_98B.trace.xz
CPU 0 Bimodal branch predictor
Basic BTB sets: 1024 ways: 8 indirect buffer size: 4096 RAS size: 64
Initialize LRU-eye replacement policy state
Finished initializing Hawkeye replacement policy state
Heartbeat CPU 0 instructions: 10000001 cycles: 2665121 heartbeat IPC: 3.75218 cumulative IPC: 3.75218 (Simulation time: 0 hr 0 min 18 sec) 
Heartbeat CPU 0 instructions: 20000000 cycles: 5310313 heartbeat IPC: 3.78044 cumulative IPC: 3.76626 (Simulation time: 0 hr 0 min 36 sec) 
Heartbeat CPU 0 instructions: 30000004 cycles: 7940195 heartbeat IPC: 3.80245 cumulative IPC: 3.77825 (Simulation time: 0 hr 0 min 54 sec) 
Heartbeat CPU 0 instructions: 40000001 cycles: 10577381 heartbeat IPC: 3.79192 cumulative IPC: 3.78165 (Simulation time: 0 hr 1 min 12 sec) 
Heartbeat CPU 0 instructions: 50000001 cycles: 13245764 heartbeat IPC: 3.74759 cumulative IPC: 3.77479 (Simulation time: 0 hr 1 min 30 sec) 
Heartbeat CPU 0 instructions: 60000000 cycles: 15899758 heartbeat IPC: 3.76791 cumulative IPC: 3.77364 (Simulation time: 0 hr 1 min 48 sec) 
Heartbeat CPU 0 instructions: 70000000 cycles: 18549874 heartbeat IPC: 3.77342 cumulative IPC: 3.77361 (Simulation time: 0 hr 2 min 6 sec) 
Heartbeat CPU 0 instructions: 80000000 cycles: 21172556 heartbeat IPC: 3.81289 cumulative IPC: 3.77848 (Simulation time: 0 hr 2 min 24 sec) 
Heartbeat CPU 0 instructions: 90000002 cycles: 23826985 heartbeat IPC: 3.76729 cumulative IPC: 3.77723 (Simulation time: 0 hr 2 min 42 sec) 
Heartbeat CPU 0 instructions: 100000003 cycles: 26463534 heartbeat IPC: 3.79284 cumulative IPC: 3.77878 (Simulation time: 0 hr 3 min 0 sec) 
Heartbeat CPU 0 instructions: 110000001 cycles: 29136232 heartbeat IPC: 3.74154 cumulative IPC: 3.77537 (Simulation time: 0 hr 3 min 18 sec) 
Heartbeat CPU 0 instructions: 120000003 cycles: 31802522 heartbeat IPC: 3.75053 cumulative IPC: 3.77329 (Simulation time: 0 hr 3 min 36 sec) 
Heartbeat CPU 0 instructions: 130000001 cycles: 34414926 heartbeat IPC: 3.82789 cumulative IPC: 3.77743 (Simulation time: 0 hr 3 min 54 sec) 
Heartbeat CPU 0 instructions: 140000000 cycles: 37085787 heartbeat IPC: 3.74411 cumulative IPC: 3.77503 (Simulation time: 0 hr 4 min 14 sec) 
Heartbeat CPU 0 instructions: 150000002 cycles: 39705249 heartbeat IPC: 3.81758 cumulative IPC: 3.77784 (Simulation time: 0 hr 4 min 34 sec) 
Heartbeat CPU 0 instructions: 160000002 cycles: 42317495 heartbeat IPC: 3.82812 cumulative IPC: 3.78094 (Simulation time: 0 hr 4 min 54 sec) 
Heartbeat CPU 0 instructions: 170000003 cycles: 44972041 heartbeat IPC: 3.76712 cumulative IPC: 3.78013 (Simulation time: 0 hr 5 min 15 sec) 
Heartbeat CPU 0 instructions: 180000001 cycles: 47638028 heartbeat IPC: 3.75096 cumulative IPC: 3.77849 (Simulation time: 0 hr 5 min 35 sec) 
Heartbeat CPU 0 instructions: 190000002 cycles: 50244994 heartbeat IPC: 3.83588 cumulative IPC: 3.78147 (Simulation time: 0 hr 5 min 56 sec) 
Heartbeat CPU 0 instructions: 200000001 cycles: 52861508 heartbeat IPC: 3.82188 cumulative IPC: 3.78347 (Simulation time: 0 hr 6 min 16 sec) 

Warmup complete CPU 0 instructions: 200000001 cycles: 52861508 (Simulation time: 0 hr 6 min 16 sec) 

Heartbeat CPU 0 instructions: 210000001 cycles: 59344604 heartbeat IPC: 1.54247 cumulative IPC: 1.54247 (Simulation time: 0 hr 6 min 37 sec) 
Heartbeat CPU 0 instructions: 220000001 cycles: 65267500 heartbeat IPC: 1.68836 cumulative IPC: 1.61212 (Simulation time: 0 hr 6 min 54 sec) 
Heartbeat CPU 0 instructions: 230000001 cycles: 71560248 heartbeat IPC: 1.58913 cumulative IPC: 1.60439 (Simulation time: 0 hr 7 min 13 sec) 
Heartbeat CPU 0 instructions: 240000002 cycles: 77841242 heartbeat IPC: 1.5921 cumulative IPC: 1.6013 (Simulation time: 0 hr 7 min 32 sec) 
Heartbeat CPU 0 instructions: 250000003 cycles: 83779225 heartbeat IPC: 1.68407 cumulative IPC: 1.6172 (Simulation time: 0 hr 7 min 50 sec) 
Heartbeat CPU 0 instructions: 260000002 cycles: 89721443 heartbeat IPC: 1.68287 cumulative IPC: 1.62778 (Simulation time: 0 hr 8 min 8 sec) 
Heartbeat CPU 0 instructions: 270000002 cycles: 96079244 heartbeat IPC: 1.57287 cumulative IPC: 1.61971 (Simulation time: 0 hr 8 min 27 sec) 
Heartbeat CPU 0 instructions: 280000000 cycles: 102434102 heartbeat IPC: 1.5736 cumulative IPC: 1.61379 (Simulation time: 0 hr 8 min 46 sec) 
Heartbeat CPU 0 instructions: 290000001 cycles: 108352643 heartbeat IPC: 1.68961 cumulative IPC: 1.62188 (Simulation time: 0 hr 9 min 3 sec) 
Heartbeat CPU 0 instructions: 300000003 cycles: 114350130 heartbeat IPC: 1.66737 cumulative IPC: 1.62632 (Simulation time: 0 hr 9 min 23 sec) 
Heartbeat CPU 0 instructions: 310000004 cycles: 120425076 heartbeat IPC: 1.64611 cumulative IPC: 1.6281 (Simulation time: 0 hr 9 min 41 sec) 
Heartbeat CPU 0 instructions: 320000000 cycles: 126449858 heartbeat IPC: 1.65981 cumulative IPC: 1.63069 (Simulation time: 0 hr 9 min 58 sec) 
Heartbeat CPU 0 instructions: 330000000 cycles: 132558732 heartbeat IPC: 1.63696 cumulative IPC: 1.63117 (Simulation time: 0 hr 10 min 17 sec) 
Heartbeat CPU 0 instructions: 340000001 cycles: 138505801 heartbeat IPC: 1.6815 cumulative IPC: 1.63467 (Simulation time: 0 hr 10 min 34 sec) 
Heartbeat CPU 0 instructions: 350000002 cycles: 144449064 heartbeat IPC: 1.68258 cumulative IPC: 1.63778 (Simulation time: 0 hr 10 min 52 sec) 
Heartbeat CPU 0 instructions: 360000001 cycles: 150404150 heartbeat IPC: 1.67924 cumulative IPC: 1.64031 (Simulation time: 0 hr 11 min 10 sec) 
Heartbeat CPU 0 instructions: 370000002 cycles: 156728676 heartbeat IPC: 1.58115 cumulative IPC: 1.63671 (Simulation time: 0 hr 11 min 28 sec) 
Heartbeat CPU 0 instructions: 380000002 cycles: 162800782 heartbeat IPC: 1.64688 cumulative IPC: 1.63727 (Simulation time: 0 hr 11 min 45 sec) 
Heartbeat CPU 0 instructions: 390000003 cycles: 168796856 heartbeat IPC: 1.66776 cumulative IPC: 1.63884 (Simulation time: 0 hr 12 min 1 sec) 
Heartbeat CPU 0 instructions: 400000000 cycles: 174782839 heartbeat IPC: 1.67057 cumulative IPC: 1.6404 (Simulation time: 0 hr 12 min 17 sec) 
Heartbeat CPU 0 instructions: 410000002 cycles: 180877974 heartbeat IPC: 1.64065 cumulative IPC: 1.64041 (Simulation time: 0 hr 12 min 33 sec) 
Heartbeat CPU 0 instructions: 420000003 cycles: 186839641 heartbeat IPC: 1.67738 cumulative IPC: 1.64206 (Simulation time: 0 hr 12 min 50 sec) 
Heartbeat CPU 0 instructions: 430000000 cycles: 193020035 heartbeat IPC: 1.61802 cumulative IPC: 1.641 (Simulation time: 0 hr 13 min 6 sec) 
Heartbeat CPU 0 instructions: 440000003 cycles: 199017393 heartbeat IPC: 1.6674 cumulative IPC: 1.64208 (Simulation time: 0 hr 13 min 23 sec) 
Heartbeat CPU 0 instructions: 450000001 cycles: 205048291 heartbeat IPC: 1.65813 cumulative IPC: 1.64272 (Simulation time: 0 hr 13 min 41 sec) 
Heartbeat CPU 0 instructions: 460000001 cycles: 210961923 heartbeat IPC: 1.69101 cumulative IPC: 1.64452 (Simulation time: 0 hr 13 min 57 sec) 
Heartbeat CPU 0 instructions: 470000004 cycles: 216913458 heartbeat IPC: 1.68024 cumulative IPC: 1.64582 (Simulation time: 0 hr 14 min 13 sec) 
Heartbeat CPU 0 instructions: 480000002 cycles: 223202981 heartbeat IPC: 1.58995 cumulative IPC: 1.64376 (Simulation time: 0 hr 14 min 30 sec) 
Heartbeat CPU 0 instructions: 490000001 cycles: 229178333 heartbeat IPC: 1.67354 cumulative IPC: 1.64477 (Simulation time: 0 hr 14 min 48 sec) 
Heartbeat CPU 0 instructions: 500000004 cycles: 235423626 heartbeat IPC: 1.60121 cumulative IPC: 1.64328 (Simulation time: 0 hr 15 min 5 sec) 
Heartbeat CPU 0 instructions: 510000003 cycles: 241486681 heartbeat IPC: 1.64933 cumulative IPC: 1.64347 (Simulation time: 0 hr 15 min 22 sec) 
Heartbeat CPU 0 instructions: 520000003 cycles: 247464505 heartbeat IPC: 1.67285 cumulative IPC: 1.64437 (Simulation time: 0 hr 15 min 40 sec) 
Heartbeat CPU 0 instructions: 530000000 cycles: 253525007 heartbeat IPC: 1.65003 cumulative IPC: 1.64454 (Simulation time: 0 hr 15 min 59 sec) 
Heartbeat CPU 0 instructions: 540000003 cycles: 259606508 heartbeat IPC: 1.64433 cumulative IPC: 1.64454 (Simulation time: 0 hr 16 min 18 sec) 
Heartbeat CPU 0 instructions: 550000000 cycles: 265767797 heartbeat IPC: 1.62304 cumulative IPC: 1.64392 (Simulation time: 0 hr 16 min 38 sec) 
Heartbeat CPU 0 instructions: 560000000 cycles: 271836799 heartbeat IPC: 1.64772 cumulative IPC: 1.64402 (Simulation time: 0 hr 16 min 57 sec) 
Heartbeat CPU 0 instructions: 570000003 cycles: 277861798 heartbeat IPC: 1.65975 cumulative IPC: 1.64444 (Simulation time: 0 hr 17 min 15 sec) 
Heartbeat CPU 0 instructions: 580000001 cycles: 284109645 heartbeat IPC: 1.60055 cumulative IPC: 1.64326 (Simulation time: 0 hr 17 min 34 sec) 
Heartbeat CPU 0 instructions: 590000002 cycles: 290041979 heartbeat IPC: 1.68568 cumulative IPC: 1.64432 (Simulation time: 0 hr 17 min 52 sec) 
Heartbeat CPU 0 instructions: 600000002 cycles: 296057717 heartbeat IPC: 1.66231 cumulative IPC: 1.64476 (Simulation time: 0 hr 18 min 12 sec) 
Heartbeat CPU 0 instructions: 610000000 cycles: 301969168 heartbeat IPC: 1.69163 cumulative IPC: 1.64587 (Simulation time: 0 hr 18 min 30 sec) 
Heartbeat CPU 0 instructions: 620000001 cycles: 307991616 heartbeat IPC: 1.66045 cumulative IPC: 1.64622 (Simulation time: 0 hr 18 min 48 sec) 
Heartbeat CPU 0 instructions: 630000001 cycles: 314299594 heartbeat IPC: 1.58529 cumulative IPC: 1.64475 (Simulation time: 0 hr 19 min 7 sec) 
Heartbeat CPU 0 instructions: 640000000 cycles: 320401949 heartbeat IPC: 1.63871 cumulative IPC: 1.64461 (Simulation time: 0 hr 19 min 26 sec) 
Heartbeat CPU 0 instructions: 650000001 cycles: 326427702 heartbeat IPC: 1.65954 cumulative IPC: 1.64494 (Simulation time: 0 hr 19 min 45 sec) 
Heartbeat CPU 0 instructions: 660000000 cycles: 332427293 heartbeat IPC: 1.66678 cumulative IPC: 1.64541 (Simulation time: 0 hr 20 min 3 sec) 
Heartbeat CPU 0 instructions: 670000001 cycles: 338637886 heartbeat IPC: 1.61015 cumulative IPC: 1.64464 (Simulation time: 0 hr 20 min 22 sec) 
Heartbeat CPU 0 instructions: 680000001 cycles: 344758715 heartbeat IPC: 1.63377 cumulative IPC: 1.64441 (Simulation time: 0 hr 20 min 42 sec) 
Heartbeat CPU 0 instructions: 690000004 cycles: 350903323 heartbeat IPC: 1.62744 cumulative IPC: 1.64406 (Simulation time: 0 hr 21 min 0 sec) 
Heartbeat CPU 0 instructions: 700000001 cycles: 356873767 heartbeat IPC: 1.67492 cumulative IPC: 1.64467 (Simulation time: 0 hr 21 min 18 sec) 
Heartbeat CPU 0 instructions: 710000000 cycles: 362884671 heartbeat IPC: 1.66364 cumulative IPC: 1.64504 (Simulation time: 0 hr 21 min 38 sec) 
Heartbeat CPU 0 instructions: 720000003 cycles: 368802641 heartbeat IPC: 1.68977 cumulative IPC: 1.64588 (Simulation time: 0 hr 21 min 55 sec) 
Heartbeat CPU 0 instructions: 730000001 cycles: 374715706 heartbeat IPC: 1.69117 cumulative IPC: 1.64671 (Simulation time: 0 hr 22 min 13 sec) 
Heartbeat CPU 0 instructions: 740000001 cycles: 380936861 heartbeat IPC: 1.60742 cumulative IPC: 1.64596 (Simulation time: 0 hr 22 min 31 sec) 
Heartbeat CPU 0 instructions: 750000002 cycles: 387065392 heartbeat IPC: 1.63171 cumulative IPC: 1.6457 (Simulation time: 0 hr 22 min 50 sec) 
Heartbeat CPU 0 instructions: 760000004 cycles: 393261954 heartbeat IPC: 1.6138 cumulative IPC: 1.64512 (Simulation time: 0 hr 23 min 8 sec) 
Heartbeat CPU 0 instructions: 770000000 cycles: 399362583 heartbeat IPC: 1.63917 cumulative IPC: 1.64502 (Simulation time: 0 hr 23 min 27 sec) 
Heartbeat CPU 0 instructions: 780000002 cycles: 405408381 heartbeat IPC: 1.65404 cumulative IPC: 1.64517 (Simulation time: 0 hr 23 min 45 sec) 
Heartbeat CPU 0 instructions: 790000004 cycles: 411392117 heartbeat IPC: 1.6712 cumulative IPC: 1.64561 (Simulation time: 0 hr 24 min 3 sec) 
Heartbeat CPU 0 instructions: 800000001 cycles: 417379765 heartbeat IPC: 1.6701 cumulative IPC: 1.64601 (Simulation time: 0 hr 24 min 21 sec) 
Heartbeat CPU 0 instructions: 810000000 cycles: 423577903 heartbeat IPC: 1.61339 cumulative IPC: 1.64546 (Simulation time: 0 hr 24 min 40 sec) 
Heartbeat CPU 0 instructions: 820000003 cycles: 429571409 heartbeat IPC: 1.66847 cumulative IPC: 1.64583 (Simulation time: 0 hr 24 min 58 sec) 
Heartbeat CPU 0 instructions: 830000001 cycles: 435593047 heartbeat IPC: 1.66068 cumulative IPC: 1.64606 (Simulation time: 0 hr 25 min 16 sec) 
Heartbeat CPU 0 instructions: 840000000 cycles: 441804525 heartbeat IPC: 1.60992 cumulative IPC: 1.64549 (Simulation time: 0 hr 25 min 34 sec) 
Heartbeat CPU 0 instructions: 850000004 cycles: 447801348 heartbeat IPC: 1.66755 cumulative IPC: 1.64582 (Simulation time: 0 hr 25 min 52 sec) 
Heartbeat CPU 0 instructions: 860000000 cycles: 453714697 heartbeat IPC: 1.69109 cumulative IPC: 1.64649 (Simulation time: 0 hr 26 min 10 sec) 
Heartbeat CPU 0 instructions: 870000004 cycles: 459867704 heartbeat IPC: 1.62522 cumulative IPC: 1.64617 (Simulation time: 0 hr 26 min 30 sec) 
Heartbeat CPU 0 instructions: 880000000 cycles: 466391036 heartbeat IPC: 1.53296 cumulative IPC: 1.64438 (Simulation time: 0 hr 26 min 49 sec) 
Heartbeat CPU 0 instructions: 890000002 cycles: 472745947 heartbeat IPC: 1.57359 cumulative IPC: 1.64331 (Simulation time: 0 hr 27 min 9 sec) 
Heartbeat CPU 0 instructions: 900000001 cycles: 479133967 heartbeat IPC: 1.56543 cumulative IPC: 1.64214 (Simulation time: 0 hr 27 min 29 sec) 
Heartbeat CPU 0 instructions: 910000003 cycles: 485108794 heartbeat IPC: 1.67369 cumulative IPC: 1.64258 (Simulation time: 0 hr 27 min 47 sec) 
Heartbeat CPU 0 instructions: 920000004 cycles: 491188377 heartbeat IPC: 1.64485 cumulative IPC: 1.64261 (Simulation time: 0 hr 28 min 8 sec) 
Heartbeat CPU 0 instructions: 930000001 cycles: 497366219 heartbeat IPC: 1.61869 cumulative IPC: 1.64228 (Simulation time: 0 hr 28 min 29 sec) 
Heartbeat CPU 0 instructions: 940000000 cycles: 503735530 heartbeat IPC: 1.57003 cumulative IPC: 1.64126 (Simulation time: 0 hr 28 min 49 sec) 
Heartbeat CPU 0 instructions: 950000000 cycles: 509778010 heartbeat IPC: 1.65495 cumulative IPC: 1.64144 (Simulation time: 0 hr 29 min 7 sec) 
Heartbeat CPU 0 instructions: 960000001 cycles: 516059843 heartbeat IPC: 1.59189 cumulative IPC: 1.64077 (Simulation time: 0 hr 29 min 27 sec) 
Heartbeat CPU 0 instructions: 970000002 cycles: 522087941 heartbeat IPC: 1.6589 cumulative IPC: 1.641 (Simulation time: 0 hr 29 min 45 sec) 
Heartbeat CPU 0 instructions: 980000000 cycles: 528516884 heartbeat IPC: 1.55547 cumulative IPC: 1.63984 (Simulation time: 0 hr 30 min 2 sec) 
Heartbeat CPU 0 instructions: 990000000 cycles: 534543063 heartbeat IPC: 1.65943 cumulative IPC: 1.64009 (Simulation time: 0 hr 30 min 20 sec) 
*** Reached end of trace: ./Traces/Traces/bwaves_98B.trace.xz
Heartbeat CPU 0 instructions: 1000000002 cycles: 540463264 heartbeat IPC: 1.68913 cumulative IPC: 1.64068 (Simulation time: 0 hr 30 min 35 sec) 
Heartbeat CPU 0 instructions: 1010000002 cycles: 546542024 heartbeat IPC: 1.64507 cumulative IPC: 1.64074 (Simulation time: 0 hr 30 min 51 sec) 
Heartbeat CPU 0 instructions: 1020000001 cycles: 552705298 heartbeat IPC: 1.62251 cumulative IPC: 1.64051 (Simulation time: 0 hr 31 min 9 sec) 
Heartbeat CPU 0 instructions: 1030000001 cycles: 559097068 heartbeat IPC: 1.56451 cumulative IPC: 1.63955 (Simulation time: 0 hr 31 min 25 sec) 
Heartbeat CPU 0 instructions: 1040000004 cycles: 565350429 heartbeat IPC: 1.59914 cumulative IPC: 1.63906 (Simulation time: 0 hr 31 min 42 sec) 
Heartbeat CPU 0 instructions: 1050000000 cycles: 571450699 heartbeat IPC: 1.63927 cumulative IPC: 1.63906 (Simulation time: 0 hr 31 min 59 sec) 
Heartbeat CPU 0 instructions: 1060000000 cycles: 577527369 heartbeat IPC: 1.64564 cumulative IPC: 1.63914 (Simulation time: 0 hr 32 min 15 sec) 
Heartbeat CPU 0 instructions: 1070000001 cycles: 583670491 heartbeat IPC: 1.62784 cumulative IPC: 1.63901 (Simulation time: 0 hr 32 min 33 sec) 
Heartbeat CPU 0 instructions: 1080000001 cycles: 590081643 heartbeat IPC: 1.55978 cumulative IPC: 1.63806 (Simulation time: 0 hr 32 min 52 sec) 
Heartbeat CPU 0 instructions: 1090000001 cycles: 596229437 heartbeat IPC: 1.6266 cumulative IPC: 1.63793 (Simulation time: 0 hr 33 min 10 sec) 
Heartbeat CPU 0 instructions: 1100000000 cycles: 602457470 heartbeat IPC: 1.60564 cumulative IPC: 1.63757 (Simulation time: 0 hr 33 min 29 sec) 
Heartbeat CPU 0 instructions: 1110000001 cycles: 608415599 heartbeat IPC: 1.67838 cumulative IPC: 1.638 (Simulation time: 0 hr 33 min 46 sec) 
Heartbeat CPU 0 instructions: 1120000004 cycles: 614477648 heartbeat IPC: 1.64961 cumulative IPC: 1.63813 (Simulation time: 0 hr 34 min 5 sec) 
Heartbeat CPU 0 instructions: 1130000001 cycles: 621014493 heartbeat IPC: 1.52979 cumulative IPC: 1.63688 (Simulation time: 0 hr 34 min 24 sec) 
Heartbeat CPU 0 instructions: 1140000000 cycles: 626973276 heartbeat IPC: 1.67819 cumulative IPC: 1.63731 (Simulation time: 0 hr 34 min 41 sec) 
Heartbeat CPU 0 instructions: 1150000000 cycles: 633433356 heartbeat IPC: 1.54797 cumulative IPC: 1.63632 (Simulation time: 0 hr 35 min 1 sec) 
Heartbeat CPU 0 instructions: 1160000000 cycles: 639973500 heartbeat IPC: 1.52902 cumulative IPC: 1.63512 (Simulation time: 0 hr 35 min 20 sec) 
Heartbeat CPU 0 instructions: 1170000002 cycles: 646100858 heartbeat IPC: 1.63203 cumulative IPC: 1.63509 (Simulation time: 0 hr 35 min 37 sec) 
Heartbeat CPU 0 instructions: 1180000000 cycles: 652189564 heartbeat IPC: 1.64238 cumulative IPC: 1.63516 (Simulation time: 0 hr 35 min 55 sec) 
Heartbeat CPU 0 instructions: 1190000001 cycles: 658772829 heartbeat IPC: 1.519 cumulative IPC: 1.6339 (Simulation time: 0 hr 36 min 12 sec) 
Heartbeat CPU 0 instructions: 1200000004 cycles: 665309873 heartbeat IPC: 1.52974 cumulative IPC: 1.63279 (Simulation time: 0 hr 36 min 31 sec) 
Finished CPU 0 instructions: 1000000003 cycles: 612448365 cumulative IPC: 1.63279 (Simulation time: 0 hr 36 min 31 sec) 

ChampSim completed all CPUs

Region of Interest Statistics

CPU 0 cumulative IPC: 1.63279 instructions: 1000000003 cycles: 612448365
cpu0_DTLB TOTAL     ACCESS:  144006671  HIT:  144001496  MISS:       5175
cpu0_DTLB LOAD      ACCESS:  121444049  HIT:  121443350  MISS:        699
cpu0_DTLB RFO       ACCESS:   22562622  HIT:   22558146  MISS:       4476
cpu0_DTLB PREFETCH  ACCESS:          0  HIT:          0  MISS:          0
cpu0_DTLB WRITEBACK ACCESS:          0  HIT:          0  MISS:          0
cpu0_DTLB TRANSLATION ACCESS:          0  HIT:          0  MISS:          0
cpu0_DTLB PREFETCH  REQUESTED:          0  ISSUED:          0  USEFUL:          0  USELESS:          0
cpu0_DTLB AVERAGE MISS LATENCY: 148.247 cycles
cpu0_ITLB TOTAL     ACCESS:  116930243  HIT:  116930243  MISS:          0
cpu0_ITLB LOAD      ACCESS:  116930243  HIT:  116930243  MISS:          0
cpu0_ITLB RFO       ACCESS:          0  HIT:          0  MISS:          0
cpu0_ITLB PREFETCH  ACCESS:          0  HIT:          0  MISS:          0
cpu0_ITLB WRITEBACK ACCESS:          0  HIT:          0  MISS:          0
cpu0_ITLB TRANSLATION ACCESS:          0  HIT:          0  MISS:          0
cpu0_ITLB PREFETCH  REQUESTED:          0  ISSUED:          0  USEFUL:          0  USELESS:          0
cpu0_ITLB AVERAGE MISS LATENCY: -nan cycles
cpu0_L1I TOTAL     ACCESS:    9977581  HIT:    9977576  MISS:          5
cpu0_L1I LOAD      ACCESS:    9977581  HIT:    9977576  MISS:          5
cpu0_L1I RFO       ACCESS:          0  HIT:          0  MISS:          0
cpu0_L1I PREFETCH  ACCESS:          0  HIT:          0  MISS:          0
cpu0_L1I WRITEBACK ACCESS:          0  HIT:          0  MISS:          0
cpu0_L1I TRANSLATION ACCESS:          0  HIT:          0  MISS:          0
cpu0_L1I PREFETCH  REQUESTED:          0  ISSUED:          0  USEFUL:          0  USELESS:          0
cpu0_L1I AVERAGE MISS LATENCY: 339.6 cycles
cpu0_STLB TOTAL     ACCESS:       5175  HIT:        261  MISS:       4914
cpu0_STLB LOAD      ACCESS:        699  HIT:        247  MISS:        452
cpu0_STLB RFO       ACCESS:       4476  HIT:         14  MISS:       4462
cpu0_STLB PREFETCH  ACCESS:          0  HIT:          0  MISS:          0
cpu0_STLB WRITEBACK ACCESS:          0  HIT:          0  MISS:          0
cpu0_STLB TRANSLATION ACCESS:          0  HIT:          0  MISS:          0
cpu0_STLB PREFETCH  REQUESTED:          0  ISSUED:          0  USEFUL:          0  USELESS:          0
cpu0_STLB AVERAGE MISS LATENCY: 146.641 cycles
cpu0_L1D TOTAL     ACCESS:  167693884  HIT:  167369715  MISS:     324169
cpu0_L1D LOAD      ACCESS:  128419522  HIT:  128384355  MISS:      35167
cpu0_L1D RFO       ACCESS:   39269448  HIT:   38980887  MISS:     288561
cpu0_L1D PREFETCH  ACCESS:          0  HIT:          0  MISS:          0
cpu0_L1D WRITEBACK ACCESS:          0  HIT:          0  MISS:          0
cpu0_L1D TRANSLATION ACCESS:       4914  HIT:       4473  MISS:        441
cpu0_L1D PREFETCH  REQUESTED:          0  ISSUED:          0  USEFUL:          0  USELESS:          0
cpu0_L1D AVERAGE MISS LATENCY: 352.753 cycles
cpu0_L2C TOTAL     ACCESS:     612748  HIT:     294645  MISS:     318103
cpu0_L2C LOAD      ACCESS:      35172  HIT:       3851  MISS:      31321
cpu0_L2C RFO       ACCESS:     288561  HIT:       2547  MISS:     286014
cpu0_L2C PREFETCH  ACCESS:          0  HIT:          0  MISS:          0
cpu0_L2C WRITEBACK ACCESS:     288574  HIT:     287811  MISS:        763
cpu0_L2C TRANSLATION ACCESS:        441  HIT:        436  MISS:          5
cpu0_L2C PREFETCH  REQUESTED:          0  ISSUED:          0  USEFUL:          0  USELESS:          0
cpu0_L2C AVERAGE MISS LATENCY: 348.257 cycles
LLC TOTAL     ACCESS:     603990  HIT:     185656  MISS:     418334
LLC LOAD      ACCESS:      31321  HIT:       2005  MISS:      29316
LLC RFO       ACCESS:     286014  HIT:        482  MISS:     285532
LLC PREFETCH  ACCESS:          0  HIT:          0  MISS:          0
LLC WRITEBACK ACCESS:     286650  HIT:     183169  MISS:     103481
LLC TRANSLATION ACCESS:          5  HIT:          0  MISS:          5
LLC PREFETCH  REQUESTED:          0  ISSUED:          0  USEFUL:          0  USELESS:          0
LLC AVERAGE MISS LATENCY: 248.886 cycles

DRAM Statistics
 CHANNEL 0
 RQ ROW_BUFFER_HIT:       1590  ROW_BUFFER_MISS:     313263
 DBUS AVG_CONGESTED_CYCLE:    3.96009
 WQ ROW_BUFFER_HIT:      11601  ROW_BUFFER_MISS:     276372  FULL:          0


CPU 0 Branch Prediction Accuracy: 80.5479% MPKI: 27.9417 Average ROB Occupancy at Mispredict: 47.4706
Branch type MPKI
BRANCH_DIRECT_JUMP: 5e-06
BRANCH_INDIRECT: 1e-06
BRANCH_CONDITIONAL: 27.9417
BRANCH_DIRECT_CALL: 0
BRANCH_INDIRECT_CALL: 0
BRANCH_RETURN: 3e-06

