
*** ChampSim Multicore Out-of-Order Simulator ***

Warmup Instructions: 200000000
Simulation Instructions: 1000000000
Number of CPUs: 1
Off-chip DRAM Size: 4 GiB Channels: 1 Width: 64-bit Data Rate: 3200 MT/s

VirtualMemory physical capacity: 8588881920 num_ppages: 2096895
VirtualMemory page size: 4096 log2_page_size: 12

CPU 0 runs Traces/lbm_94B.trace.xz
CPU 0 Bimodal branch predictor
Basic BTB sets: 1024 ways: 8 indirect buffer size: 4096 RAS size: 64
Heartbeat CPU 0 instructions: 10000001 cycles: 2544818 heartbeat IPC: 3.92955 cumulative IPC: 3.92955 (Simulation time: 0 hr 0 min 19 sec) 
Heartbeat CPU 0 instructions: 20000001 cycles: 5075903 heartbeat IPC: 3.95087 cumulative IPC: 3.94019 (Simulation time: 0 hr 0 min 38 sec) 
Heartbeat CPU 0 instructions: 30000003 cycles: 7604125 heartbeat IPC: 3.95535 cumulative IPC: 3.94523 (Simulation time: 0 hr 0 min 57 sec) 
Heartbeat CPU 0 instructions: 40000002 cycles: 10124265 heartbeat IPC: 3.96803 cumulative IPC: 3.9509 (Simulation time: 0 hr 1 min 15 sec) 
Heartbeat CPU 0 instructions: 50000000 cycles: 12636187 heartbeat IPC: 3.98101 cumulative IPC: 3.95689 (Simulation time: 0 hr 1 min 34 sec) 
Heartbeat CPU 0 instructions: 60000001 cycles: 15143189 heartbeat IPC: 3.98883 cumulative IPC: 3.96218 (Simulation time: 0 hr 1 min 52 sec) 
Heartbeat CPU 0 instructions: 70000003 cycles: 17650167 heartbeat IPC: 3.98887 cumulative IPC: 3.96597 (Simulation time: 0 hr 2 min 10 sec) 
Heartbeat CPU 0 instructions: 80000003 cycles: 20157150 heartbeat IPC: 3.98886 cumulative IPC: 3.96882 (Simulation time: 0 hr 2 min 27 sec) 
Heartbeat CPU 0 instructions: 90000003 cycles: 22664129 heartbeat IPC: 3.98886 cumulative IPC: 3.97103 (Simulation time: 0 hr 2 min 45 sec) 
Heartbeat CPU 0 instructions: 100000003 cycles: 25171108 heartbeat IPC: 3.98886 cumulative IPC: 3.97281 (Simulation time: 0 hr 3 min 3 sec) 
Heartbeat CPU 0 instructions: 110000003 cycles: 27678080 heartbeat IPC: 3.98888 cumulative IPC: 3.97426 (Simulation time: 0 hr 3 min 20 sec) 
Heartbeat CPU 0 instructions: 120000000 cycles: 30185070 heartbeat IPC: 3.98885 cumulative IPC: 3.97548 (Simulation time: 0 hr 3 min 38 sec) 
Heartbeat CPU 0 instructions: 130000002 cycles: 32692054 heartbeat IPC: 3.98886 cumulative IPC: 3.9765 (Simulation time: 0 hr 3 min 56 sec) 
Heartbeat CPU 0 instructions: 140000000 cycles: 35196705 heartbeat IPC: 3.99257 cumulative IPC: 3.97765 (Simulation time: 0 hr 4 min 13 sec) 
Heartbeat CPU 0 instructions: 150000002 cycles: 37703687 heartbeat IPC: 3.98886 cumulative IPC: 3.97839 (Simulation time: 0 hr 4 min 31 sec) 
Heartbeat CPU 0 instructions: 160000002 cycles: 40210668 heartbeat IPC: 3.98886 cumulative IPC: 3.97904 (Simulation time: 0 hr 4 min 48 sec) 
Heartbeat CPU 0 instructions: 170000002 cycles: 42717646 heartbeat IPC: 3.98887 cumulative IPC: 3.97962 (Simulation time: 0 hr 5 min 6 sec) 
Heartbeat CPU 0 instructions: 180000003 cycles: 45224656 heartbeat IPC: 3.98882 cumulative IPC: 3.98013 (Simulation time: 0 hr 5 min 24 sec) 
Heartbeat CPU 0 instructions: 190000000 cycles: 47731628 heartbeat IPC: 3.98887 cumulative IPC: 3.98059 (Simulation time: 0 hr 5 min 42 sec) 
Heartbeat CPU 0 instructions: 200000003 cycles: 50238609 heartbeat IPC: 3.98886 cumulative IPC: 3.981 (Simulation time: 0 hr 6 min 0 sec) 

Warmup complete CPU 0 instructions: 200000003 cycles: 50238609 (Simulation time: 0 hr 6 min 0 sec) 

Heartbeat CPU 0 instructions: 210000003 cycles: 88302462 heartbeat IPC: 0.262716 cumulative IPC: 0.262716 (Simulation time: 0 hr 7 min 54 sec) 
Heartbeat CPU 0 instructions: 220000003 cycles: 126393131 heartbeat IPC: 0.262531 cumulative IPC: 0.262624 (Simulation time: 0 hr 9 min 49 sec) 
Heartbeat CPU 0 instructions: 230000003 cycles: 164426261 heartbeat IPC: 0.262929 cumulative IPC: 0.262725 (Simulation time: 0 hr 11 min 45 sec) 
Heartbeat CPU 0 instructions: 240000003 cycles: 202518348 heartbeat IPC: 0.262522 cumulative IPC: 0.262674 (Simulation time: 0 hr 13 min 40 sec) 
Heartbeat CPU 0 instructions: 250000003 cycles: 240655107 heartbeat IPC: 0.262214 cumulative IPC: 0.262582 (Simulation time: 0 hr 15 min 36 sec) 
Heartbeat CPU 0 instructions: 260000000 cycles: 278758924 heartbeat IPC: 0.262441 cumulative IPC: 0.262559 (Simulation time: 0 hr 17 min 33 sec) 
Heartbeat CPU 0 instructions: 270000003 cycles: 316887326 heartbeat IPC: 0.262272 cumulative IPC: 0.262518 (Simulation time: 0 hr 19 min 29 sec) 
Heartbeat CPU 0 instructions: 280000003 cycles: 355021340 heartbeat IPC: 0.262233 cumulative IPC: 0.262482 (Simulation time: 0 hr 21 min 25 sec) 
Heartbeat CPU 0 instructions: 290000001 cycles: 393137753 heartbeat IPC: 0.262354 cumulative IPC: 0.262468 (Simulation time: 0 hr 23 min 21 sec) 
Heartbeat CPU 0 instructions: 300000003 cycles: 431202752 heartbeat IPC: 0.262709 cumulative IPC: 0.262492 (Simulation time: 0 hr 25 min 17 sec) 
Heartbeat CPU 0 instructions: 310000001 cycles: 471319580 heartbeat IPC: 0.249272 cumulative IPC: 0.261232 (Simulation time: 0 hr 27 min 21 sec) 
Heartbeat CPU 0 instructions: 320000004 cycles: 533645196 heartbeat IPC: 0.160448 cumulative IPC: 0.248238 (Simulation time: 0 hr 31 min 13 sec) 
Heartbeat CPU 0 instructions: 330000000 cycles: 571639172 heartbeat IPC: 0.2632 cumulative IPC: 0.249328 (Simulation time: 0 hr 33 min 9 sec) 
Heartbeat CPU 0 instructions: 340000004 cycles: 609779776 heartbeat IPC: 0.262188 cumulative IPC: 0.250205 (Simulation time: 0 hr 35 min 5 sec) 
Heartbeat CPU 0 instructions: 350000000 cycles: 648363992 heartbeat IPC: 0.259173 cumulative IPC: 0.250784 (Simulation time: 0 hr 37 min 3 sec) 
Heartbeat CPU 0 instructions: 360000001 cycles: 688081750 heartbeat IPC: 0.251777 cumulative IPC: 0.250845 (Simulation time: 0 hr 39 min 6 sec) 
Heartbeat CPU 0 instructions: 370000004 cycles: 728798093 heartbeat IPC: 0.245602 cumulative IPC: 0.250531 (Simulation time: 0 hr 41 min 14 sec) 
Heartbeat CPU 0 instructions: 380000000 cycles: 771011531 heartbeat IPC: 0.236891 cumulative IPC: 0.249732 (Simulation time: 0 hr 43 min 29 sec) 
Heartbeat CPU 0 instructions: 390000003 cycles: 812969424 heartbeat IPC: 0.238334 cumulative IPC: 0.249105 (Simulation time: 0 hr 45 min 43 sec) 
Heartbeat CPU 0 instructions: 400000001 cycles: 855314124 heartbeat IPC: 0.236157 cumulative IPC: 0.248424 (Simulation time: 0 hr 47 min 57 sec) 
Heartbeat CPU 0 instructions: 410000001 cycles: 898920659 heartbeat IPC: 0.229323 cumulative IPC: 0.247442 (Simulation time: 0 hr 50 min 18 sec) 
Heartbeat CPU 0 instructions: 420000002 cycles: 941119532 heartbeat IPC: 0.236973 cumulative IPC: 0.246947 (Simulation time: 0 hr 52 min 31 sec) 
Heartbeat CPU 0 instructions: 430000001 cycles: 983851649 heartbeat IPC: 0.234016 cumulative IPC: 0.246355 (Simulation time: 0 hr 54 min 47 sec) 
Heartbeat CPU 0 instructions: 440000003 cycles: 1025905397 heartbeat IPC: 0.237791 cumulative IPC: 0.245986 (Simulation time: 0 hr 57 min 0 sec) 
Heartbeat CPU 0 instructions: 450000003 cycles: 1066762539 heartbeat IPC: 0.244755 cumulative IPC: 0.245936 (Simulation time: 0 hr 59 min 8 sec) 
Heartbeat CPU 0 instructions: 460000004 cycles: 1106752615 heartbeat IPC: 0.250062 cumulative IPC: 0.246092 (Simulation time: 1 hr 1 min 13 sec) 
Heartbeat CPU 0 instructions: 470000002 cycles: 1145974341 heartbeat IPC: 0.254961 cumulative IPC: 0.24641 (Simulation time: 1 hr 3 min 14 sec) 
Heartbeat CPU 0 instructions: 480000002 cycles: 1183992516 heartbeat IPC: 0.263032 cumulative IPC: 0.246967 (Simulation time: 1 hr 5 min 9 sec) 
Heartbeat CPU 0 instructions: 490000001 cycles: 1222171163 heartbeat IPC: 0.261927 cumulative IPC: 0.247455 (Simulation time: 1 hr 7 min 5 sec) 
Heartbeat CPU 0 instructions: 500000003 cycles: 1260251227 heartbeat IPC: 0.262605 cumulative IPC: 0.247931 (Simulation time: 1 hr 9 min 1 sec) 
Heartbeat CPU 0 instructions: 510000003 cycles: 1298506459 heartbeat IPC: 0.261402 cumulative IPC: 0.248344 (Simulation time: 1 hr 10 min 57 sec) 
Heartbeat CPU 0 instructions: 520000003 cycles: 1336639799 heartbeat IPC: 0.262238 cumulative IPC: 0.248756 (Simulation time: 1 hr 12 min 53 sec) 
Heartbeat CPU 0 instructions: 530000003 cycles: 1374759630 heartbeat IPC: 0.262331 cumulative IPC: 0.249147 (Simulation time: 1 hr 14 min 49 sec) 
Heartbeat CPU 0 instructions: 540000003 cycles: 1413001006 heartbeat IPC: 0.261497 cumulative IPC: 0.249493 (Simulation time: 1 hr 16 min 46 sec) 
Heartbeat CPU 0 instructions: 550000003 cycles: 1451095941 heartbeat IPC: 0.262502 cumulative IPC: 0.249847 (Simulation time: 1 hr 18 min 42 sec) 
Heartbeat CPU 0 instructions: 560000001 cycles: 1489290668 heartbeat IPC: 0.261816 cumulative IPC: 0.250165 (Simulation time: 1 hr 20 min 37 sec) 
Heartbeat CPU 0 instructions: 570000000 cycles: 1527465537 heartbeat IPC: 0.261952 cumulative IPC: 0.250469 (Simulation time: 1 hr 22 min 32 sec) 
Heartbeat CPU 0 instructions: 580000001 cycles: 1565619771 heartbeat IPC: 0.262094 cumulative IPC: 0.250762 (Simulation time: 1 hr 24 min 29 sec) 
Heartbeat CPU 0 instructions: 590000003 cycles: 1603734385 heartbeat IPC: 0.262367 cumulative IPC: 0.251047 (Simulation time: 1 hr 26 min 25 sec) 
Heartbeat CPU 0 instructions: 600000001 cycles: 1641883753 heartbeat IPC: 0.262127 cumulative IPC: 0.251312 (Simulation time: 1 hr 28 min 21 sec) 
Heartbeat CPU 0 instructions: 610000001 cycles: 1680039537 heartbeat IPC: 0.262083 cumulative IPC: 0.251564 (Simulation time: 1 hr 30 min 17 sec) 
Heartbeat CPU 0 instructions: 620000001 cycles: 1718228155 heartbeat IPC: 0.261858 cumulative IPC: 0.2518 (Simulation time: 1 hr 32 min 12 sec) 
Heartbeat CPU 0 instructions: 630000001 cycles: 1756391756 heartbeat IPC: 0.26203 cumulative IPC: 0.252029 (Simulation time: 1 hr 46 min 46 sec) 
Heartbeat CPU 0 instructions: 640000001 cycles: 1794522592 heartbeat IPC: 0.262255 cumulative IPC: 0.252252 (Simulation time: 1 hr 48 min 42 sec) 
Heartbeat CPU 0 instructions: 650000002 cycles: 1832693730 heartbeat IPC: 0.261978 cumulative IPC: 0.252461 (Simulation time: 1 hr 53 min 28 sec) 
Heartbeat CPU 0 instructions: 660000001 cycles: 1870799023 heartbeat IPC: 0.262431 cumulative IPC: 0.252669 (Simulation time: 1 hr 55 min 22 sec) 
Heartbeat CPU 0 instructions: 670000001 cycles: 1908938786 heartbeat IPC: 0.262194 cumulative IPC: 0.252865 (Simulation time: 1 hr 57 min 17 sec) 
Heartbeat CPU 0 instructions: 680000004 cycles: 1947119397 heartbeat IPC: 0.261913 cumulative IPC: 0.253047 (Simulation time: 1 hr 59 min 12 sec) 
Heartbeat CPU 0 instructions: 690000001 cycles: 1985241159 heartbeat IPC: 0.262317 cumulative IPC: 0.25323 (Simulation time: 2 hr 7 min 37 sec) 
Heartbeat CPU 0 instructions: 700000001 cycles: 2023332581 heartbeat IPC: 0.262526 cumulative IPC: 0.253409 (Simulation time: 2 hr 9 min 32 sec) 
Heartbeat CPU 0 instructions: 710000002 cycles: 2061525504 heartbeat IPC: 0.261829 cumulative IPC: 0.253569 (Simulation time: 2 hr 11 min 28 sec) 
Heartbeat CPU 0 instructions: 720000001 cycles: 2099528007 heartbeat IPC: 0.263141 cumulative IPC: 0.253746 (Simulation time: 2 hr 13 min 22 sec) 
Heartbeat CPU 0 instructions: 730000002 cycles: 2161176437 heartbeat IPC: 0.16221 cumulative IPC: 0.251073 (Simulation time: 2 hr 17 min 10 sec) 
Heartbeat CPU 0 instructions: 740000002 cycles: 2202166883 heartbeat IPC: 0.243959 cumulative IPC: 0.250938 (Simulation time: 2 hr 19 min 17 sec) 
Heartbeat CPU 0 instructions: 750000002 cycles: 2240292530 heartbeat IPC: 0.262291 cumulative IPC: 0.251135 (Simulation time: 2 hr 21 min 11 sec) 
Heartbeat CPU 0 instructions: 760000003 cycles: 2278547665 heartbeat IPC: 0.261403 cumulative IPC: 0.251312 (Simulation time: 2 hr 23 min 6 sec) 
Heartbeat CPU 0 instructions: 770000004 cycles: 2317602511 heartbeat IPC: 0.25605 cumulative IPC: 0.251393 (Simulation time: 2 hr 25 min 4 sec) 
Heartbeat CPU 0 instructions: 780000004 cycles: 2357578444 heartbeat IPC: 0.250151 cumulative IPC: 0.251372 (Simulation time: 2 hr 27 min 7 sec) 
Heartbeat CPU 0 instructions: 790000002 cycles: 2398330561 heartbeat IPC: 0.245386 cumulative IPC: 0.251268 (Simulation time: 2 hr 29 min 14 sec) 
Heartbeat CPU 0 instructions: 800000000 cycles: 2439992082 heartbeat IPC: 0.24003 cumulative IPC: 0.251072 (Simulation time: 2 hr 31 min 24 sec) 
Heartbeat CPU 0 instructions: 810000001 cycles: 2483216640 heartbeat IPC: 0.23135 cumulative IPC: 0.250722 (Simulation time: 2 hr 33 min 43 sec) 
Heartbeat CPU 0 instructions: 820000004 cycles: 2525474809 heartbeat IPC: 0.236641 cumulative IPC: 0.250481 (Simulation time: 2 hr 35 min 56 sec) 
Heartbeat CPU 0 instructions: 830000004 cycles: 2568638539 heartbeat IPC: 0.231676 cumulative IPC: 0.250159 (Simulation time: 2 hr 38 min 14 sec) 
Heartbeat CPU 0 instructions: 840000002 cycles: 2611479594 heartbeat IPC: 0.233421 cumulative IPC: 0.249879 (Simulation time: 2 hr 40 min 30 sec) 
Heartbeat CPU 0 instructions: 850000001 cycles: 2653554076 heartbeat IPC: 0.237674 cumulative IPC: 0.249682 (Simulation time: 2 hr 42 min 42 sec) 
Heartbeat CPU 0 instructions: 860000002 cycles: 2695494995 heartbeat IPC: 0.238431 cumulative IPC: 0.249503 (Simulation time: 2 hr 44 min 54 sec) 
Heartbeat CPU 0 instructions: 870000002 cycles: 2736382715 heartbeat IPC: 0.244572 cumulative IPC: 0.249428 (Simulation time: 2 hr 47 min 1 sec) 
Heartbeat CPU 0 instructions: 880000004 cycles: 2776125100 heartbeat IPC: 0.251621 cumulative IPC: 0.24946 (Simulation time: 2 hr 49 min 2 sec) 
Heartbeat CPU 0 instructions: 890000001 cycles: 2814873134 heartbeat IPC: 0.258078 cumulative IPC: 0.249581 (Simulation time: 2 hr 50 min 59 sec) 
Heartbeat CPU 0 instructions: 900000001 cycles: 2853060333 heartbeat IPC: 0.261868 cumulative IPC: 0.249748 (Simulation time: 2 hr 52 min 54 sec) 
Heartbeat CPU 0 instructions: 910000001 cycles: 2891168306 heartbeat IPC: 0.262412 cumulative IPC: 0.249918 (Simulation time: 2 hr 54 min 48 sec) 
Heartbeat CPU 0 instructions: 920000001 cycles: 2929383173 heartbeat IPC: 0.261678 cumulative IPC: 0.250074 (Simulation time: 2 hr 56 min 43 sec) 
Heartbeat CPU 0 instructions: 930000001 cycles: 2967532994 heartbeat IPC: 0.262124 cumulative IPC: 0.250232 (Simulation time: 2 hr 58 min 38 sec) 
Heartbeat CPU 0 instructions: 940000001 cycles: 3005756096 heartbeat IPC: 0.261622 cumulative IPC: 0.250379 (Simulation time: 3 hr 0 min 32 sec) 
Heartbeat CPU 0 instructions: 950000001 cycles: 3043911228 heartbeat IPC: 0.262088 cumulative IPC: 0.250528 (Simulation time: 3 hr 2 min 27 sec) 
Heartbeat CPU 0 instructions: 960000002 cycles: 3081984745 heartbeat IPC: 0.26265 cumulative IPC: 0.250681 (Simulation time: 3 hr 4 min 21 sec) 
Heartbeat CPU 0 instructions: 970000001 cycles: 3120201517 heartbeat IPC: 0.261665 cumulative IPC: 0.250817 (Simulation time: 3 hr 12 min 37 sec) 
Heartbeat CPU 0 instructions: 980000001 cycles: 3158303569 heartbeat IPC: 0.262453 cumulative IPC: 0.25096 (Simulation time: 3 hr 14 min 33 sec) 
Heartbeat CPU 0 instructions: 990000002 cycles: 3196397097 heartbeat IPC: 0.262512 cumulative IPC: 0.2511 (Simulation time: 3 hr 16 min 29 sec) 
*** Reached end of trace: Traces/lbm_94B.trace.xz
Heartbeat CPU 0 instructions: 1000000001 cycles: 3234532379 heartbeat IPC: 0.262224 cumulative IPC: 0.251233 (Simulation time: 3 hr 18 min 26 sec) 
Heartbeat CPU 0 instructions: 1010000000 cycles: 3277896580 heartbeat IPC: 0.230605 cumulative IPC: 0.250956 (Simulation time: 3 hr 20 min 45 sec) 
Heartbeat CPU 0 instructions: 1020000000 cycles: 3319467969 heartbeat IPC: 0.24055 cumulative IPC: 0.250824 (Simulation time: 3 hr 22 min 57 sec) 
Heartbeat CPU 0 instructions: 1030000004 cycles: 3360674806 heartbeat IPC: 0.242678 cumulative IPC: 0.250722 (Simulation time: 3 hr 25 min 8 sec) 
Heartbeat CPU 0 instructions: 1040000000 cycles: 3401113110 heartbeat IPC: 0.24729 cumulative IPC: 0.250681 (Simulation time: 3 hr 27 min 14 sec) 
Heartbeat CPU 0 instructions: 1050000001 cycles: 3440591242 heartbeat IPC: 0.253305 cumulative IPC: 0.250711 (Simulation time: 3 hr 29 min 16 sec) 
Heartbeat CPU 0 instructions: 1060000003 cycles: 3478896337 heartbeat IPC: 0.261062 cumulative IPC: 0.250827 (Simulation time: 3 hr 31 min 12 sec) 
Heartbeat CPU 0 instructions: 1070000001 cycles: 3517051890 heartbeat IPC: 0.262085 cumulative IPC: 0.250951 (Simulation time: 3 hr 33 min 8 sec) 
Heartbeat CPU 0 instructions: 1080000003 cycles: 3555231317 heartbeat IPC: 0.261921 cumulative IPC: 0.25107 (Simulation time: 3 hr 35 min 4 sec) 
Heartbeat CPU 0 instructions: 1090000003 cycles: 3593430003 heartbeat IPC: 0.261789 cumulative IPC: 0.251186 (Simulation time: 3 hr 37 min 0 sec) 
Heartbeat CPU 0 instructions: 1100000001 cycles: 3631605360 heartbeat IPC: 0.261949 cumulative IPC: 0.251301 (Simulation time: 3 hr 38 min 56 sec) 
Heartbeat CPU 0 instructions: 1110000003 cycles: 3669745032 heartbeat IPC: 0.262194 cumulative IPC: 0.251415 (Simulation time: 3 hr 40 min 52 sec) 
Heartbeat CPU 0 instructions: 1120000003 cycles: 3707884158 heartbeat IPC: 0.262198 cumulative IPC: 0.251528 (Simulation time: 3 hr 42 min 48 sec) 
Heartbeat CPU 0 instructions: 1130000001 cycles: 3746031412 heartbeat IPC: 0.262142 cumulative IPC: 0.251637 (Simulation time: 3 hr 44 min 45 sec) 
Heartbeat CPU 0 instructions: 1140000003 cycles: 3783979511 heartbeat IPC: 0.263518 cumulative IPC: 0.251758 (Simulation time: 3 hr 46 min 39 sec) 
Heartbeat CPU 0 instructions: 1150000001 cycles: 3822082055 heartbeat IPC: 0.26245 cumulative IPC: 0.251866 (Simulation time: 3 hr 48 min 35 sec) 
Heartbeat CPU 0 instructions: 1160000003 cycles: 3860260347 heartbeat IPC: 0.261929 cumulative IPC: 0.251967 (Simulation time: 3 hr 50 min 31 sec) 
Heartbeat CPU 0 instructions: 1170000003 cycles: 3898416841 heartbeat IPC: 0.262079 cumulative IPC: 0.252067 (Simulation time: 3 hr 52 min 27 sec) 
Heartbeat CPU 0 instructions: 1180000001 cycles: 3936519799 heartbeat IPC: 0.262447 cumulative IPC: 0.252169 (Simulation time: 3 hr 54 min 23 sec) 
Heartbeat CPU 0 instructions: 1190000003 cycles: 3974637966 heartbeat IPC: 0.262342 cumulative IPC: 0.252268 (Simulation time: 3 hr 56 min 19 sec) 
Heartbeat CPU 0 instructions: 1200000003 cycles: 4012804804 heartbeat IPC: 0.262008 cumulative IPC: 0.252362 (Simulation time: 3 hr 58 min 15 sec) 
Finished CPU 0 instructions: 1000000000 cycles: 3962566195 cumulative IPC: 0.252362 (Simulation time: 3 hr 58 min 15 sec) 

ChampSim completed all CPUs

Region of Interest Statistics

CPU 0 cumulative IPC: 0.252362 instructions: 1000000000 cycles: 3962566195
cpu0_DTLB TOTAL     ACCESS:  133347802  HIT:  132862842  MISS:     484960
cpu0_DTLB LOAD      ACCESS:   68127999  HIT:   68006677  MISS:     121322
cpu0_DTLB RFO       ACCESS:   65219803  HIT:   64856165  MISS:     363638
cpu0_DTLB PREFETCH  ACCESS:          0  HIT:          0  MISS:          0
cpu0_DTLB WRITEBACK ACCESS:          0  HIT:          0  MISS:          0
cpu0_DTLB TRANSLATION ACCESS:          0  HIT:          0  MISS:          0
cpu0_DTLB PREFETCH  REQUESTED:          0  ISSUED:          0  USEFUL:          0  USELESS:          0
cpu0_DTLB AVERAGE MISS LATENCY: 231.421 cycles
cpu0_ITLB TOTAL     ACCESS:    1237322  HIT:    1237321  MISS:          1
cpu0_ITLB LOAD      ACCESS:    1237322  HIT:    1237321  MISS:          1
cpu0_ITLB RFO       ACCESS:          0  HIT:          0  MISS:          0
cpu0_ITLB PREFETCH  ACCESS:          0  HIT:          0  MISS:          0
cpu0_ITLB WRITEBACK ACCESS:          0  HIT:          0  MISS:          0
cpu0_ITLB TRANSLATION ACCESS:          0  HIT:          0  MISS:          0
cpu0_ITLB PREFETCH  REQUESTED:          0  ISSUED:          0  USEFUL:          0  USELESS:          0
cpu0_ITLB AVERAGE MISS LATENCY: 2842 cycles
cpu0_L1I TOTAL     ACCESS:         12  HIT:          6  MISS:          6
cpu0_L1I LOAD      ACCESS:         12  HIT:          6  MISS:          6
cpu0_L1I RFO       ACCESS:          0  HIT:          0  MISS:          0
cpu0_L1I PREFETCH  ACCESS:          0  HIT:          0  MISS:          0
cpu0_L1I WRITEBACK ACCESS:          0  HIT:          0  MISS:          0
cpu0_L1I TRANSLATION ACCESS:          0  HIT:          0  MISS:          0
cpu0_L1I PREFETCH  REQUESTED:          0  ISSUED:          0  USEFUL:          0  USELESS:          0
cpu0_L1I AVERAGE MISS LATENCY: 376.167 cycles
cpu0_STLB TOTAL     ACCESS:     484961  HIT:         15  MISS:     484946
cpu0_STLB LOAD      ACCESS:     121323  HIT:          0  MISS:     121323
cpu0_STLB RFO       ACCESS:     363638  HIT:         15  MISS:     363623
cpu0_STLB PREFETCH  ACCESS:          0  HIT:          0  MISS:          0
cpu0_STLB WRITEBACK ACCESS:          0  HIT:          0  MISS:          0
cpu0_STLB TRANSLATION ACCESS:          0  HIT:          0  MISS:          0
cpu0_STLB PREFETCH  REQUESTED:          0  ISSUED:          0  USEFUL:          0  USELESS:          0
cpu0_STLB AVERAGE MISS LATENCY: 222.433 cycles
cpu0_L1D TOTAL     ACCESS:  147743986  HIT:   96578586  MISS:   51165400
cpu0_L1D LOAD      ACCESS:   43109164  HIT:   35355756  MISS:    7753408
cpu0_L1D RFO       ACCESS:  104149912  HIT:   60738376  MISS:   43411536
cpu0_L1D PREFETCH  ACCESS:          0  HIT:          0  MISS:          0
cpu0_L1D WRITEBACK ACCESS:          0  HIT:          0  MISS:          0
cpu0_L1D TRANSLATION ACCESS:     484910  HIT:     484454  MISS:        456
cpu0_L1D PREFETCH  REQUESTED:          0  ISSUED:          0  USEFUL:          0  USELESS:          0
cpu0_L1D AVERAGE MISS LATENCY: 605.309 cycles
cpu0_L2C TOTAL     ACCESS:   94576933  HIT:   63551208  MISS:   31025725
cpu0_L2C LOAD      ACCESS:    7753414  HIT:        599  MISS:    7752815
cpu0_L2C RFO       ACCESS:   43411525  HIT:   20140657  MISS:   23270868
cpu0_L2C PREFETCH  ACCESS:          0  HIT:          0  MISS:          0
cpu0_L2C WRITEBACK ACCESS:   43411538  HIT:   43409952  MISS:       1586
cpu0_L2C TRANSLATION ACCESS:        456  HIT:          0  MISS:        456
cpu0_L2C PREFETCH  REQUESTED:          0  ISSUED:          0  USEFUL:          0  USELESS:          0
cpu0_L2C AVERAGE MISS LATENCY: 978.635 cycles
LLC TOTAL     ACCESS:   54296158  HIT:   23198316  MISS:   31097842
LLC LOAD      ACCESS:    7752815  HIT:        256  MISS:    7752559
LLC RFO       ACCESS:   23270865  HIT:      18442  MISS:   23252423
LLC PREFETCH  ACCESS:          0  HIT:          0  MISS:          0
LLC WRITEBACK ACCESS:   23272022  HIT:   23179617  MISS:      92405
LLC TRANSLATION ACCESS:        456  HIT:          1  MISS:        455
LLC PREFETCH  REQUESTED:          0  ISSUED:          0  USEFUL:          0  USELESS:          0
LLC AVERAGE MISS LATENCY: 955.415 cycles

DRAM Statistics
 CHANNEL 0
 RQ ROW_BUFFER_HIT:     391014  ROW_BUFFER_MISS:   30614340
 DBUS AVG_CONGESTED_CYCLE:    3.99793
 WQ ROW_BUFFER_HIT:     457076  ROW_BUFFER_MISS:   22796336  FULL:          0


CPU 0 Branch Prediction Accuracy: 99.1507% MPKI: 0.101225 Average ROB Occupancy at Mispredict: 173.041
Branch type MPKI
BRANCH_DIRECT_JUMP: 2e-06
BRANCH_INDIRECT: 0
BRANCH_CONDITIONAL: 0.101218
BRANCH_DIRECT_CALL: 2e-06
BRANCH_INDIRECT_CALL: 0
BRANCH_RETURN: 3e-06

