
*** ChampSim Multicore Out-of-Order Simulator ***

Warmup Instructions: 50000000
Simulation Instructions: 50000000
Number of CPUs: 1
Off-chip DRAM Size: 4 GiB Channels: 1 Width: 64-bit Data Rate: 3200 MT/s

VirtualMemory physical capacity: 8588881920 num_ppages: 2096895
VirtualMemory page size: 4096 log2_page_size: 12

CPU 0 runs 444.namd-120B.champsimtrace.xz
Basic BTB sets: 1024 ways: 8 indirect buffer size: 4096 RAS size: 64
Heartbeat CPU 0 instructions: 10000004 cycles: 2895732 heartbeat IPC: 3.45336 cumulative IPC: 3.45336 (Simulation time: 0 hr 1 min 19 sec) 
Heartbeat CPU 0 instructions: 20000003 cycles: 5876753 heartbeat IPC: 3.35456 cumulative IPC: 3.40324 (Simulation time: 0 hr 2 min 36 sec) 
Heartbeat CPU 0 instructions: 30000001 cycles: 8785850 heartbeat IPC: 3.43749 cumulative IPC: 3.41458 (Simulation time: 0 hr 3 min 56 sec) 
Heartbeat CPU 0 instructions: 40000004 cycles: 11734393 heartbeat IPC: 3.39151 cumulative IPC: 3.40878 (Simulation time: 0 hr 5 min 9 sec) 
Heartbeat CPU 0 instructions: 50000002 cycles: 14598437 heartbeat IPC: 3.49157 cumulative IPC: 3.42502 (Simulation time: 0 hr 6 min 12 sec) 

Warmup complete CPU 0 instructions: 50000002 cycles: 14598437 (Simulation time: 0 hr 6 min 12 sec) 

Heartbeat CPU 0 instructions: 60000001 cycles: 18804423 heartbeat IPC: 2.37756 cumulative IPC: 2.37756 (Simulation time: 0 hr 7 min 14 sec) 
Heartbeat CPU 0 instructions: 70000004 cycles: 22893235 heartbeat IPC: 2.4457 cumulative IPC: 2.41115 (Simulation time: 0 hr 8 min 18 sec) 
Heartbeat CPU 0 instructions: 80000001 cycles: 26948978 heartbeat IPC: 2.46564 cumulative IPC: 2.42904 (Simulation time: 0 hr 9 min 19 sec) 
Heartbeat CPU 0 instructions: 90000000 cycles: 30892604 heartbeat IPC: 2.53574 cumulative IPC: 2.45487 (Simulation time: 0 hr 10 min 25 sec) 
Heartbeat CPU 0 instructions: 100000000 cycles: 34812210 heartbeat IPC: 2.55128 cumulative IPC: 2.47356 (Simulation time: 0 hr 11 min 13 sec) 
Finished CPU 0 instructions: 50000003 cycles: 20213774 cumulative IPC: 2.47356 (Simulation time: 0 hr 11 min 13 sec) 

ChampSim completed all CPUs

Region of Interest Statistics

CPU 0 cumulative IPC: 2.47356 instructions: 50000003 cycles: 20213774
cpu0_DTLB TOTAL     ACCESS:    9676192  HIT:    9672681  MISS:       3511
cpu0_DTLB LOAD      ACCESS:    8514065  HIT:    8510717  MISS:       3348
cpu0_DTLB RFO       ACCESS:    1162127  HIT:    1161964  MISS:        163
cpu0_DTLB PREFETCH  ACCESS:          0  HIT:          0  MISS:          0
cpu0_DTLB WRITEBACK ACCESS:          0  HIT:          0  MISS:          0
cpu0_DTLB TRANSLATION ACCESS:          0  HIT:          0  MISS:          0
cpu0_DTLB PREFETCH  REQUESTED:          0  ISSUED:          0  USEFUL:          0  USELESS:          0
cpu0_DTLB AVERAGE MISS LATENCY: 17.2526 cycles
cpu0_ITLB TOTAL     ACCESS:    1720282  HIT:    1720282  MISS:          0
cpu0_ITLB LOAD      ACCESS:    1720282  HIT:    1720282  MISS:          0
cpu0_ITLB RFO       ACCESS:          0  HIT:          0  MISS:          0
cpu0_ITLB PREFETCH  ACCESS:          0  HIT:          0  MISS:          0
cpu0_ITLB WRITEBACK ACCESS:          0  HIT:          0  MISS:          0
cpu0_ITLB TRANSLATION ACCESS:          0  HIT:          0  MISS:          0
cpu0_ITLB PREFETCH  REQUESTED:          0  ISSUED:          0  USEFUL:          0  USELESS:          0
cpu0_ITLB AVERAGE MISS LATENCY: -nan cycles
cpu0_L1I TOTAL     ACCESS:      47936  HIT:      47936  MISS:          0
cpu0_L1I LOAD      ACCESS:      47936  HIT:      47936  MISS:          0
cpu0_L1I RFO       ACCESS:          0  HIT:          0  MISS:          0
cpu0_L1I PREFETCH  ACCESS:          0  HIT:          0  MISS:          0
cpu0_L1I WRITEBACK ACCESS:          0  HIT:          0  MISS:          0
cpu0_L1I TRANSLATION ACCESS:          0  HIT:          0  MISS:          0
cpu0_L1I PREFETCH  REQUESTED:          0  ISSUED:          0  USEFUL:          0  USELESS:          0
cpu0_L1I AVERAGE MISS LATENCY: -nan cycles
cpu0_STLB TOTAL     ACCESS:       3511  HIT:       3373  MISS:        138
cpu0_STLB LOAD      ACCESS:       3348  HIT:       3210  MISS:        138
cpu0_STLB RFO       ACCESS:        163  HIT:        163  MISS:          0
cpu0_STLB PREFETCH  ACCESS:          0  HIT:          0  MISS:          0
cpu0_STLB WRITEBACK ACCESS:          0  HIT:          0  MISS:          0
cpu0_STLB TRANSLATION ACCESS:          0  HIT:          0  MISS:          0
cpu0_STLB PREFETCH  REQUESTED:          0  ISSUED:          0  USEFUL:          0  USELESS:          0
cpu0_STLB AVERAGE MISS LATENCY: 209.79 cycles
cpu0_L1D TOTAL     ACCESS:    8930746  HIT:    8850069  MISS:      80677
cpu0_L1D LOAD      ACCESS:    7352077  HIT:    7274969  MISS:      77108
cpu0_L1D RFO       ACCESS:    1578531  HIT:    1574995  MISS:       3536
cpu0_L1D PREFETCH  ACCESS:          0  HIT:          0  MISS:          0
cpu0_L1D WRITEBACK ACCESS:          0  HIT:          0  MISS:          0
cpu0_L1D TRANSLATION ACCESS:        138  HIT:        105  MISS:         33
cpu0_L1D PREFETCH  REQUESTED:          0  ISSUED:          0  USEFUL:          0  USELESS:          0
cpu0_L1D AVERAGE MISS LATENCY: 19.6918 cycles
cpu0_L2C TOTAL     ACCESS:      95067  HIT:      87511  MISS:       7556
cpu0_L2C LOAD      ACCESS:      77096  HIT:      69544  MISS:       7552
cpu0_L2C RFO       ACCESS:       3536  HIT:       3532  MISS:          4
cpu0_L2C PREFETCH  ACCESS:          0  HIT:          0  MISS:          0
cpu0_L2C WRITEBACK ACCESS:      14402  HIT:      14402  MISS:          0
cpu0_L2C TRANSLATION ACCESS:         33  HIT:         33  MISS:          0
cpu0_L2C PREFETCH  REQUESTED:          0  ISSUED:          0  USEFUL:          0  USELESS:          0
cpu0_L2C AVERAGE MISS LATENCY: 92.77 cycles
LLC TOTAL     ACCESS:       8995  HIT:       3351  MISS:       5644
LLC LOAD      ACCESS:       7552  HIT:       1909  MISS:       5643
LLC RFO       ACCESS:          4  HIT:          3  MISS:          1
LLC PREFETCH  ACCESS:          0  HIT:          0  MISS:          0
LLC WRITEBACK ACCESS:       1439  HIT:       1439  MISS:          0
LLC TRANSLATION ACCESS:          0  HIT:          0  MISS:          0
LLC PREFETCH  REQUESTED:          0  ISSUED:          0  USEFUL:          0  USELESS:          0
LLC AVERAGE MISS LATENCY: 96.0833 cycles

DRAM Statistics
 CHANNEL 0
 RQ ROW_BUFFER_HIT:       3916  ROW_BUFFER_MISS:       1728
 DBUS AVG_CONGESTED_CYCLE:    3.66087
 WQ ROW_BUFFER_HIT:          0  ROW_BUFFER_MISS:          0  FULL:          0


CPU 0 Branch Prediction Accuracy: 96.1482% MPKI: 2.29946 Average ROB Occupancy at Mispredict: 105.339
Branch type MPKI
BRANCH_DIRECT_JUMP: 0
BRANCH_INDIRECT: 0
BRANCH_CONDITIONAL: 2.29946
BRANCH_DIRECT_CALL: 0
BRANCH_INDIRECT_CALL: 0
BRANCH_RETURN: 0

