*** ChampSim Multicore Out-of-Order Simulator ***

Warmup Instructions: 50000000
Simulation Instructions: 50000000
Number of CPUs: 1
Off-chip DRAM Size: 4 GiB Channels: 1 Width: 64-bit Data Rate: 3200 MT/s

VirtualMemory physical capacity: 8588881920 num_ppages: 2096895
VirtualMemory page size: 4096 log2_page_size: 12

CPU 0 runs traces/435.gromacs-111B.champsimtrace.xz
Basic BTB sets: 1024 ways: 8 indirect buffer size: 4096 RAS size: 64
Heartbeat CPU 0 instructions: 10000000 cycles: 2750379 heartbeat IPC: 3.63586 cumulative IPC: 3.63586 (Simulation time: 0 hr 0 min 22 sec) 
Heartbeat CPU 0 instructions: 20000003 cycles: 5377760 heartbeat IPC: 3.80607 cumulative IPC: 3.71902 (Simulation time: 0 hr 0 min 42 sec) 
Heartbeat CPU 0 instructions: 30000000 cycles: 8102426 heartbeat IPC: 3.67017 cumulative IPC: 3.70259 (Simulation time: 0 hr 1 min 4 sec) 
Heartbeat CPU 0 instructions: 40000003 cycles: 10744401 heartbeat IPC: 3.78505 cumulative IPC: 3.72287 (Simulation time: 0 hr 1 min 24 sec) 
Heartbeat CPU 0 instructions: 50000000 cycles: 13455072 heartbeat IPC: 3.68912 cumulative IPC: 3.71607 (Simulation time: 0 hr 1 min 45 sec) 

Warmup complete CPU 0 instructions: 50000004 cycles: 13455073 (Simulation time: 0 hr 1 min 45 sec) 

Heartbeat CPU 0 instructions: 60000000 cycles: 18998401 heartbeat IPC: 1.80397 cumulative IPC: 1.80397 (Simulation time: 0 hr 2 min 5 sec) 
Heartbeat CPU 0 instructions: 70000004 cycles: 24407681 heartbeat IPC: 1.84868 cumulative IPC: 1.82605 (Simulation time: 0 hr 2 min 25 sec) 
Heartbeat CPU 0 instructions: 80000004 cycles: 30543649 heartbeat IPC: 1.62973 cumulative IPC: 1.75556 (Simulation time: 0 hr 2 min 45 sec) 
Heartbeat CPU 0 instructions: 90000004 cycles: 35308635 heartbeat IPC: 2.09864 cumulative IPC: 1.83037 (Simulation time: 0 hr 3 min 5 sec) 
Heartbeat CPU 0 instructions: 100000000 cycles: 41581442 heartbeat IPC: 1.59418 cumulative IPC: 1.77769 (Simulation time: 0 hr 3 min 24 sec) 
Finished CPU 0 instructions: 50000001 cycles: 28126370 cumulative IPC: 1.77769 (Simulation time: 0 hr 3 min 24 sec) 

ChampSim completed all CPUs

Region of Interest Statistics

CPU 0 cumulative IPC: 1.77769 instructions: 50000001 cycles: 28126370
cpu0_DTLB TOTAL     ACCESS:    8900627  HIT:    8815947  MISS:      84680
cpu0_DTLB LOAD      ACCESS:    6291554  HIT:    6214374  MISS:      77180
cpu0_DTLB RFO       ACCESS:    2609073  HIT:    2601573  MISS:       7500
cpu0_DTLB PREFETCH  ACCESS:          0  HIT:          0  MISS:          0
cpu0_DTLB WRITEBACK ACCESS:          0  HIT:          0  MISS:          0
cpu0_DTLB TRANSLATION ACCESS:          0  HIT:          0  MISS:          0
cpu0_DTLB PREFETCH  REQUESTED:          0  ISSUED:          0  USEFUL:          0  USELESS:          0
cpu0_DTLB AVERAGE MISS LATENCY: 9.20965 cycles
cpu0_ITLB TOTAL     ACCESS:    2667780  HIT:    2667780  MISS:          0
cpu0_ITLB LOAD      ACCESS:    2667780  HIT:    2667780  MISS:          0
cpu0_ITLB RFO       ACCESS:          0  HIT:          0  MISS:          0
cpu0_ITLB PREFETCH  ACCESS:          0  HIT:          0  MISS:          0
cpu0_ITLB WRITEBACK ACCESS:          0  HIT:          0  MISS:          0
cpu0_ITLB TRANSLATION ACCESS:          0  HIT:          0  MISS:          0
cpu0_ITLB PREFETCH  REQUESTED:          0  ISSUED:          0  USEFUL:          0  USELESS:          0
cpu0_ITLB AVERAGE MISS LATENCY: nan cycles
cpu0_L1I TOTAL     ACCESS:    3768571  HIT:    3768571  MISS:          0
cpu0_L1I LOAD      ACCESS:    3768571  HIT:    3768571  MISS:          0
cpu0_L1I RFO       ACCESS:          0  HIT:          0  MISS:          0
cpu0_L1I PREFETCH  ACCESS:          0  HIT:          0  MISS:          0
cpu0_L1I WRITEBACK ACCESS:          0  HIT:          0  MISS:          0
cpu0_L1I TRANSLATION ACCESS:          0  HIT:          0  MISS:          0
cpu0_L1I PREFETCH  REQUESTED:          0  ISSUED:          0  USEFUL:          0  USELESS:          0
cpu0_L1I AVERAGE MISS LATENCY: nan cycles
cpu0_STLB TOTAL     ACCESS:      84680  HIT:      84627  MISS:         53
cpu0_STLB LOAD      ACCESS:      77180  HIT:      77159  MISS:         21
cpu0_STLB RFO       ACCESS:       7500  HIT:       7468  MISS:         32
cpu0_STLB PREFETCH  ACCESS:          0  HIT:          0  MISS:          0
cpu0_STLB WRITEBACK ACCESS:          0  HIT:          0  MISS:          0
cpu0_STLB TRANSLATION ACCESS:          0  HIT:          0  MISS:          0
cpu0_STLB PREFETCH  REQUESTED:          0  ISSUED:          0  USEFUL:          0  USELESS:          0
cpu0_STLB AVERAGE MISS LATENCY: 221.774 cycles
cpu0_L1D TOTAL     ACCESS:   13413080  HIT:   12753805  MISS:     659275
cpu0_L1D LOAD      ACCESS:    7058997  HIT:    6419053  MISS:     639944
cpu0_L1D RFO       ACCESS:    6354030  HIT:    6334752  MISS:      19278
cpu0_L1D PREFETCH  ACCESS:          0  HIT:          0  MISS:          0
cpu0_L1D WRITEBACK ACCESS:          0  HIT:          0  MISS:          0
cpu0_L1D TRANSLATION ACCESS:         53  HIT:          0  MISS:         53
cpu0_L1D PREFETCH  REQUESTED:          0  ISSUED:          0  USEFUL:          0  USELESS:          0
cpu0_L1D AVERAGE MISS LATENCY: 12.339 cycles
cpu0_L2C TOTAL     ACCESS:     779736  HIT:     760631  MISS:      19105
cpu0_L2C LOAD      ACCESS:     639915  HIT:     624019  MISS:      15896
cpu0_L2C RFO       ACCESS:      19274  HIT:      16134  MISS:       3140
cpu0_L2C PREFETCH  ACCESS:          0  HIT:          0  MISS:          0
cpu0_L2C WRITEBACK ACCESS:     120494  HIT:     120432  MISS:         62
cpu0_L2C TRANSLATION ACCESS:         53  HIT:         46  MISS:          7
cpu0_L2C PREFETCH  REQUESTED:          0  ISSUED:          0  USEFUL:          0  USELESS:          0
cpu0_L2C AVERAGE MISS LATENCY: 44.9364 cycles
LLC TOTAL     ACCESS:      27627  HIT:      24434  MISS:       3193
LLC LOAD      ACCESS:      15869  HIT:      14505  MISS:       1364
LLC RFO       ACCESS:       3140  HIT:       1311  MISS:       1829
LLC PREFETCH  ACCESS:          0  HIT:          0  MISS:          0
LLC WRITEBACK ACCESS:       8611  HIT:       8611  MISS:          0
LLC TRANSLATION ACCESS:          7  HIT:          7  MISS:          0
LLC PREFETCH  REQUESTED:          0  ISSUED:          0  USEFUL:          0  USELESS:          0
LLC AVERAGE MISS LATENCY: 143.798 cycles

DRAM Statistics
 CHANNEL 0
 RQ ROW_BUFFER_HIT:        663  ROW_BUFFER_MISS:       2530
 DBUS AVG_CONGESTED_CYCLE:    3.57453
 WQ ROW_BUFFER_HIT:          0  ROW_BUFFER_MISS:          0  FULL:          0


CPU 0 Branch Prediction Accuracy: 89.8621% MPKI: 6.97456 Average ROB Occupancy at Mispredict: 36.825
Branch type MPKI
BRANCH_DIRECT_JUMP: 0
BRANCH_INDIRECT: 0
BRANCH_CONDITIONAL: 6.97456
BRANCH_DIRECT_CALL: 0
BRANCH_INDIRECT_CALL: 0
BRANCH_RETURN: 0