
*** ChampSim Multicore Out-of-Order Simulator ***

Warmup Instructions: 50000000
Simulation Instructions: 50000000
Number of CPUs: 1
Off-chip DRAM Size: 4 GiB Channels: 1 Width: 64-bit Data Rate: 3200 MT/s

VirtualMemory physical capacity: 8588881920 num_ppages: 2096895
VirtualMemory page size: 4096 log2_page_size: 12

CPU 0 runs 444.namd-120B.champsimtrace.xz
CPU 0 Bimodal branch predictor
Basic BTB sets: 1024 ways: 8 indirect buffer size: 4096 RAS size: 64
Heartbeat CPU 0 instructions: 10000004 cycles: 2895732 heartbeat IPC: 3.45336 cumulative IPC: 3.45336 (Simulation time: 0 hr 0 min 57 sec) 
Heartbeat CPU 0 instructions: 20000003 cycles: 5876753 heartbeat IPC: 3.35456 cumulative IPC: 3.40324 (Simulation time: 0 hr 1 min 51 sec) 
Heartbeat CPU 0 instructions: 30000001 cycles: 8785850 heartbeat IPC: 3.43749 cumulative IPC: 3.41458 (Simulation time: 0 hr 2 min 44 sec) 
Heartbeat CPU 0 instructions: 40000004 cycles: 11734393 heartbeat IPC: 3.39151 cumulative IPC: 3.40878 (Simulation time: 0 hr 3 min 38 sec) 
Heartbeat CPU 0 instructions: 50000002 cycles: 14598437 heartbeat IPC: 3.49157 cumulative IPC: 3.42502 (Simulation time: 0 hr 4 min 30 sec) 

Warmup complete CPU 0 instructions: 50000002 cycles: 14598437 (Simulation time: 0 hr 4 min 30 sec) 

Heartbeat CPU 0 instructions: 60000001 cycles: 18897071 heartbeat IPC: 2.32632 cumulative IPC: 2.32632 (Simulation time: 0 hr 5 min 24 sec) 
Heartbeat CPU 0 instructions: 70000004 cycles: 23076521 heartbeat IPC: 2.39266 cumulative IPC: 2.35902 (Simulation time: 0 hr 6 min 14 sec) 
Heartbeat CPU 0 instructions: 80000004 cycles: 27220823 heartbeat IPC: 2.41295 cumulative IPC: 2.37673 (Simulation time: 0 hr 7 min 6 sec) 
Heartbeat CPU 0 instructions: 90000000 cycles: 31254077 heartbeat IPC: 2.47939 cumulative IPC: 2.40159 (Simulation time: 0 hr 7 min 48 sec) 
Heartbeat CPU 0 instructions: 100000000 cycles: 35253946 heartbeat IPC: 2.50008 cumulative IPC: 2.42066 (Simulation time: 0 hr 8 min 33 sec) 
Finished CPU 0 instructions: 50000003 cycles: 20655510 cumulative IPC: 2.42066 (Simulation time: 0 hr 8 min 33 sec) 

ChampSim completed all CPUs

Region of Interest Statistics

CPU 0 cumulative IPC: 2.42066 instructions: 50000003 cycles: 20655510
cpu0_DTLB TOTAL     ACCESS:    9695652  HIT:    9692126  MISS:       3526
cpu0_DTLB LOAD      ACCESS:    8531456  HIT:    8528093  MISS:       3363
cpu0_DTLB RFO       ACCESS:    1164196  HIT:    1164033  MISS:        163
cpu0_DTLB PREFETCH  ACCESS:          0  HIT:          0  MISS:          0
cpu0_DTLB WRITEBACK ACCESS:          0  HIT:          0  MISS:          0
cpu0_DTLB TRANSLATION ACCESS:          0  HIT:          0  MISS:          0
cpu0_DTLB PREFETCH  REQUESTED:          0  ISSUED:          0  USEFUL:          0  USELESS:          0
cpu0_DTLB AVERAGE MISS LATENCY: 17.2184 cycles
cpu0_ITLB TOTAL     ACCESS:    1735286  HIT:    1735286  MISS:          0
cpu0_ITLB LOAD      ACCESS:    1735286  HIT:    1735286  MISS:          0
cpu0_ITLB RFO       ACCESS:          0  HIT:          0  MISS:          0
cpu0_ITLB PREFETCH  ACCESS:          0  HIT:          0  MISS:          0
cpu0_ITLB WRITEBACK ACCESS:          0  HIT:          0  MISS:          0
cpu0_ITLB TRANSLATION ACCESS:          0  HIT:          0  MISS:          0
cpu0_ITLB PREFETCH  REQUESTED:          0  ISSUED:          0  USEFUL:          0  USELESS:          0
cpu0_ITLB AVERAGE MISS LATENCY: -nan cycles
cpu0_L1I TOTAL     ACCESS:      46649  HIT:      46649  MISS:          0
cpu0_L1I LOAD      ACCESS:      46649  HIT:      46649  MISS:          0
cpu0_L1I RFO       ACCESS:          0  HIT:          0  MISS:          0
cpu0_L1I PREFETCH  ACCESS:          0  HIT:          0  MISS:          0
cpu0_L1I WRITEBACK ACCESS:          0  HIT:          0  MISS:          0
cpu0_L1I TRANSLATION ACCESS:          0  HIT:          0  MISS:          0
cpu0_L1I PREFETCH  REQUESTED:          0  ISSUED:          0  USEFUL:          0  USELESS:          0
cpu0_L1I AVERAGE MISS LATENCY: -nan cycles
cpu0_STLB TOTAL     ACCESS:       3526  HIT:       3388  MISS:        138
cpu0_STLB LOAD      ACCESS:       3363  HIT:       3225  MISS:        138
cpu0_STLB RFO       ACCESS:        163  HIT:        163  MISS:          0
cpu0_STLB PREFETCH  ACCESS:          0  HIT:          0  MISS:          0
cpu0_STLB WRITEBACK ACCESS:          0  HIT:          0  MISS:          0
cpu0_STLB TRANSLATION ACCESS:          0  HIT:          0  MISS:          0
cpu0_STLB PREFETCH  REQUESTED:          0  ISSUED:          0  USEFUL:          0  USELESS:          0
cpu0_STLB AVERAGE MISS LATENCY: 209.783 cycles
cpu0_L1D TOTAL     ACCESS:    8929159  HIT:    8848478  MISS:      80681
cpu0_L1D LOAD      ACCESS:    7350427  HIT:    7273316  MISS:      77111
cpu0_L1D RFO       ACCESS:    1578594  HIT:    1575057  MISS:       3537
cpu0_L1D PREFETCH  ACCESS:          0  HIT:          0  MISS:          0
cpu0_L1D WRITEBACK ACCESS:          0  HIT:          0  MISS:          0
cpu0_L1D TRANSLATION ACCESS:        138  HIT:        105  MISS:         33
cpu0_L1D PREFETCH  REQUESTED:          0  ISSUED:          0  USEFUL:          0  USELESS:          0
cpu0_L1D AVERAGE MISS LATENCY: 19.5786 cycles
cpu0_L2C TOTAL     ACCESS:      95073  HIT:      87517  MISS:       7556
cpu0_L2C LOAD      ACCESS:      77099  HIT:      69547  MISS:       7552
cpu0_L2C RFO       ACCESS:       3537  HIT:       3533  MISS:          4
cpu0_L2C PREFETCH  ACCESS:          0  HIT:          0  MISS:          0
cpu0_L2C WRITEBACK ACCESS:      14404  HIT:      14404  MISS:          0
cpu0_L2C TRANSLATION ACCESS:         33  HIT:         33  MISS:          0
cpu0_L2C PREFETCH  REQUESTED:          0  ISSUED:          0  USEFUL:          0  USELESS:          0
cpu0_L2C AVERAGE MISS LATENCY: 91.5675 cycles
LLC TOTAL     ACCESS:       8995  HIT:       3351  MISS:       5644
LLC LOAD      ACCESS:       7552  HIT:       1909  MISS:       5643
LLC RFO       ACCESS:          4  HIT:          3  MISS:          1
LLC PREFETCH  ACCESS:          0  HIT:          0  MISS:          0
LLC WRITEBACK ACCESS:       1439  HIT:       1439  MISS:          0
LLC TRANSLATION ACCESS:          0  HIT:          0  MISS:          0
LLC PREFETCH  REQUESTED:          0  ISSUED:          0  USEFUL:          0  USELESS:          0
LLC AVERAGE MISS LATENCY: 94.4734 cycles

DRAM Statistics
 CHANNEL 0
 RQ ROW_BUFFER_HIT:       3917  ROW_BUFFER_MISS:       1727
 DBUS AVG_CONGESTED_CYCLE:    3.39531
 WQ ROW_BUFFER_HIT:          0  ROW_BUFFER_MISS:          0  FULL:          0


CPU 0 Branch Prediction Accuracy: 95.4609% MPKI: 2.70974 Average ROB Occupancy at Mispredict: 88.4122
Branch type MPKI
BRANCH_DIRECT_JUMP: 0
BRANCH_INDIRECT: 0
BRANCH_CONDITIONAL: 2.70974
BRANCH_DIRECT_CALL: 0
BRANCH_INDIRECT_CALL: 0
BRANCH_RETURN: 0

